REMARK  Name = ../refined-set-2016/4ea2/4ea2_pocket.pdb
REMARK  233 active torsions:
REMARK  status: ('A' for Active; 'I' for Inactive)
REMARK    1  A    between atoms: _1  and  _3
REMARK    2  A    between atoms: _3  and  _4
REMARK    3  A    between atoms: _3  and  _6
REMARK    4  A    between atoms: _6  and  _7
REMARK    5  A    between atoms: _10  and  _12
REMARK    6  A    between atoms: _12  and  _13
REMARK    7  A    between atoms: _12  and  _15
REMARK    8  A    between atoms: _15  and  _16
REMARK    9  A    between atoms: _16  and  _17
REMARK   10  A    between atoms: _19  and  _21
REMARK   11  A    between atoms: _21  and  _22
REMARK   12  A    between atoms: _21  and  _24
REMARK   13  A    between atoms: _24  and  _25
REMARK   14  A    between atoms: _30  and  _32
REMARK   15  A    between atoms: _32  and  _33
REMARK   16  A    between atoms: _32  and  _35
REMARK   17  A    between atoms: _35  and  _36
REMARK   18  A    between atoms: _38  and  _40
REMARK   19  A    between atoms: _40  and  _41
REMARK   20  A    between atoms: _40  and  _43
REMARK   21  A    between atoms: _43  and  _44
REMARK   22  A    between atoms: _46  and  _48
REMARK   23  A    between atoms: _48  and  _49
REMARK   24  A    between atoms: _48  and  _51
REMARK   25  A    between atoms: _51  and  _52
REMARK   26  A    between atoms: _58  and  _60
REMARK   27  A    between atoms: _60  and  _61
REMARK   28  A    between atoms: _64  and  _66
REMARK   29  A    between atoms: _66  and  _67
REMARK   30  A    between atoms: _66  and  _69
REMARK   31  A    between atoms: _69  and  _70
REMARK   32  A    between atoms: _76  and  _78
REMARK   33  A    between atoms: _78  and  _79
REMARK   34  A    between atoms: _78  and  _81
REMARK   35  A    between atoms: _84  and  _86
REMARK   36  A    between atoms: _86  and  _87
REMARK   37  A    between atoms: _86  and  _89
REMARK   38  A    between atoms: _89  and  _90
REMARK   39  A    between atoms: _93  and  _95
REMARK   40  A    between atoms: _95  and  _96
REMARK   41  A    between atoms: _95  and  _98
REMARK   42  A    between atoms: _98  and  _99
REMARK   43  A    between atoms: _104  and  _105
REMARK   44  A    between atoms: _107  and  _109
REMARK   45  A    between atoms: _109  and  _110
REMARK   46  A    between atoms: _113  and  _115
REMARK   47  A    between atoms: _115  and  _116
REMARK   48  A    between atoms: _115  and  _118
REMARK   49  A    between atoms: _121  and  _123
REMARK   50  A    between atoms: _123  and  _124
REMARK   51  A    between atoms: _123  and  _126
REMARK   52  A    between atoms: _128  and  _130
REMARK   53  A    between atoms: _130  and  _131
REMARK   54  A    between atoms: _130  and  _133
REMARK   55  A    between atoms: _133  and  _134
REMARK   56  A    between atoms: _134  and  _135
REMARK   57  A    between atoms: _135  and  _136
REMARK   58  A    between atoms: _145  and  _147
REMARK   59  A    between atoms: _147  and  _148
REMARK   60  A    between atoms: _147  and  _150
REMARK   61  A    between atoms: _150  and  _151
REMARK   62  A    between atoms: _151  and  _152
REMARK   63  A    between atoms: _152  and  _153
REMARK   64  A    between atoms: _153  and  _154
REMARK   65  A    between atoms: _158  and  _160
REMARK   66  A    between atoms: _160  and  _161
REMARK   67  A    between atoms: _160  and  _163
REMARK   68  A    between atoms: _163  and  _164
REMARK   69  A    between atoms: _167  and  _169
REMARK   70  A    between atoms: _169  and  _170
REMARK   71  A    between atoms: _169  and  _172
REMARK   72  A    between atoms: _172  and  _173
REMARK   73  A    between atoms: _176  and  _178
REMARK   74  A    between atoms: _178  and  _179
REMARK   75  A    between atoms: _178  and  _181
REMARK   76  A    between atoms: _181  and  _182
REMARK   77  A    between atoms: _185  and  _187
REMARK   78  A    between atoms: _187  and  _188
REMARK   79  A    between atoms: _187  and  _190
REMARK   80  A    between atoms: _190  and  _191
REMARK   81  A    between atoms: _197  and  _199
REMARK   82  A    between atoms: _199  and  _200
REMARK   83  A    between atoms: _199  and  _202
REMARK   84  A    between atoms: _202  and  _203
REMARK   85  A    between atoms: _206  and  _208
REMARK   86  A    between atoms: _208  and  _209
REMARK   87  A    between atoms: _208  and  _211
REMARK   88  A    between atoms: _211  and  _212
REMARK   89  A    between atoms: _215  and  _217
REMARK   90  A    between atoms: _217  and  _218
REMARK   91  A    between atoms: _217  and  _220
REMARK   92  A    between atoms: _223  and  _225
REMARK   93  A    between atoms: _225  and  _226
REMARK   94  A    between atoms: _225  and  _228
REMARK   95  A    between atoms: _228  and  _229
REMARK   96  A    between atoms: _234  and  _235
REMARK   97  A    between atoms: _237  and  _239
REMARK   98  A    between atoms: _239  and  _240
REMARK   99  A    between atoms: _239  and  _242
REMARK  100  A    between atoms: _244  and  _246
REMARK  101  A    between atoms: _246  and  _247
REMARK  102  A    between atoms: _246  and  _249
REMARK  103  A    between atoms: _249  and  _250
REMARK  104  A    between atoms: _255  and  _256
REMARK  105  A    between atoms: _258  and  _260
REMARK  106  A    between atoms: _260  and  _261
REMARK  107  A    between atoms: _263  and  _265
REMARK  108  A    between atoms: _265  and  _266
REMARK  109  A    between atoms: _265  and  _268
REMARK  110  A    between atoms: _271  and  _273
REMARK  111  A    between atoms: _273  and  _274
REMARK  112  A    between atoms: _277  and  _279
REMARK  113  A    between atoms: _279  and  _280
REMARK  114  A    between atoms: _282  and  _284
REMARK  115  A    between atoms: _284  and  _285
REMARK  116  A    between atoms: _284  and  _287
REMARK  117  A    between atoms: _287  and  _288
REMARK  118  A    between atoms: _291  and  _293
REMARK  119  A    between atoms: _293  and  _294
REMARK  120  A    between atoms: _293  and  _296
REMARK  121  A    between atoms: _299  and  _301
REMARK  122  A    between atoms: _301  and  _302
REMARK  123  A    between atoms: _304  and  _306
REMARK  124  A    between atoms: _306  and  _307
REMARK  125  A    between atoms: _306  and  _309
REMARK  126  A    between atoms: _309  and  _310
REMARK  127  A    between atoms: _310  and  _311
REMARK  128  A    between atoms: _314  and  _316
REMARK  129  A    between atoms: _316  and  _317
REMARK  130  A    between atoms: _316  and  _319
REMARK  131  A    between atoms: _322  and  _324
REMARK  132  A    between atoms: _324  and  _325
REMARK  133  A    between atoms: _324  and  _327
REMARK  134  A    between atoms: _327  and  _328
REMARK  135  A    between atoms: _331  and  _333
REMARK  136  A    between atoms: _333  and  _334
REMARK  137  A    between atoms: _333  and  _336
REMARK  138  A    between atoms: _336  and  _337
REMARK  139  A    between atoms: _340  and  _342
REMARK  140  A    between atoms: _342  and  _343
REMARK  141  A    between atoms: _342  and  _345
REMARK  142  A    between atoms: _345  and  _346
REMARK  143  A    between atoms: _349  and  _351
REMARK  144  A    between atoms: _351  and  _352
REMARK  145  A    between atoms: _351  and  _354
REMARK  146  A    between atoms: _357  and  _359
REMARK  147  A    between atoms: _359  and  _360
REMARK  148  A    between atoms: _363  and  _365
REMARK  149  A    between atoms: _365  and  _366
REMARK  150  A    between atoms: _365  and  _368
REMARK  151  A    between atoms: _368  and  _369
REMARK  152  A    between atoms: _369  and  _370
REMARK  153  A    between atoms: _370  and  _371
REMARK  154  A    between atoms: _380  and  _382
REMARK  155  A    between atoms: _382  and  _383
REMARK  156  A    between atoms: _382  and  _385
REMARK  157  A    between atoms: _385  and  _386
REMARK  158  A    between atoms: _386  and  _387
REMARK  159  A    between atoms: _387  and  _388
REMARK  160  A    between atoms: _397  and  _399
REMARK  161  A    between atoms: _399  and  _400
REMARK  162  A    between atoms: _399  and  _402
REMARK  163  A    between atoms: _402  and  _403
REMARK  164  A    between atoms: _406  and  _408
REMARK  165  A    between atoms: _408  and  _409
REMARK  166  A    between atoms: _411  and  _413
REMARK  167  A    between atoms: _413  and  _414
REMARK  168  A    between atoms: _413  and  _416
REMARK  169  A    between atoms: _416  and  _417
REMARK  170  A    between atoms: _417  and  _418
REMARK  171  A    between atoms: _421  and  _423
REMARK  172  A    between atoms: _423  and  _424
REMARK  173  A    between atoms: _423  and  _426
REMARK  174  A    between atoms: _426  and  _427
REMARK  175  A    between atoms: _429  and  _431
REMARK  176  A    between atoms: _431  and  _432
REMARK  177  A    between atoms: _431  and  _434
REMARK  178  A    between atoms: _434  and  _435
REMARK  179  A    between atoms: _438  and  _440
REMARK  180  A    between atoms: _440  and  _441
REMARK  181  A    between atoms: _440  and  _443
REMARK  182  A    between atoms: _443  and  _444
REMARK  183  A    between atoms: _444  and  _445
REMARK  184  A    between atoms: _450  and  _452
REMARK  185  A    between atoms: _452  and  _453
REMARK  186  A    between atoms: _452  and  _455
REMARK  187  A    between atoms: _455  and  _456
REMARK  188  A    between atoms: _459  and  _461
REMARK  189  A    between atoms: _461  and  _462
REMARK  190  A    between atoms: _461  and  _464
REMARK  191  A    between atoms: _464  and  _465
REMARK  192  A    between atoms: _468  and  _470
REMARK  193  A    between atoms: _470  and  _471
REMARK  194  A    between atoms: _470  and  _473
REMARK  195  A    between atoms: _473  and  _474
REMARK  196  A    between atoms: _479  and  _481
REMARK  197  A    between atoms: _481  and  _482
REMARK  198  A    between atoms: _481  and  _484
REMARK  199  A    between atoms: _484  and  _485
REMARK  200  A    between atoms: _488  and  _490
REMARK  201  A    between atoms: _490  and  _491
REMARK  202  A    between atoms: _490  and  _493
REMARK  203  A    between atoms: _493  and  _494
REMARK  204  A    between atoms: _494  and  _495
REMARK  205  A    between atoms: _495  and  _496
REMARK  206  A    between atoms: _505  and  _507
REMARK  207  A    between atoms: _507  and  _508
REMARK  208  A    between atoms: _507  and  _510
REMARK  209  A    between atoms: _510  and  _511
REMARK  210  A    between atoms: _514  and  _516
REMARK  211  A    between atoms: _516  and  _517
REMARK  212  A    between atoms: _516  and  _519
REMARK  213  A    between atoms: _522  and  _524
REMARK  214  A    between atoms: _524  and  _525
REMARK  215  A    between atoms: _524  and  _527
REMARK  216  A    between atoms: _527  and  _528
REMARK  217  A    between atoms: _534  and  _536
REMARK  218  A    between atoms: _536  and  _537
REMARK  219  A    between atoms: _536  and  _539
REMARK  220  A    between atoms: _539  and  _540
REMARK  221  A    between atoms: _543  and  _545
REMARK  222  A    between atoms: _545  and  _546
REMARK  223  A    between atoms: _549  and  _551
REMARK  224  A    between atoms: _551  and  _552
REMARK  225  A    between atoms: _555  and  _557
REMARK  226  A    between atoms: _557  and  _558
REMARK  227  A    between atoms: _557  and  _560
REMARK  228  A    between atoms: _560  and  _561
REMARK  229  A    between atoms: _566  and  _567
REMARK  230  A    between atoms: _569  and  _571
REMARK  231  A    between atoms: _571  and  _572
REMARK  232  A    between atoms: _571  and  _574
REMARK  233  A    between atoms: _574  and  _575
REMARK                            x       y       z     vdW  Elec       q    Type
REMARK                         _______ _______ _______ _____ _____    ______ ____
ROOT
ATOM      1  C   ILE A   1     -21.113 -19.486   2.925  0.00  0.00    +0.238 C 
ATOM      2  N   MET A   2     -21.995 -18.510   3.125  0.00  0.00    -0.298 N 
ATOM      3  H   MET A   2     -22.661 -18.563   3.922  0.00  0.00    +0.150 HD
ATOM      4  O   ILE A   1     -20.158 -19.376   2.138  0.00  0.00    -0.274 OA
ENDROOT
BRANCH   1   5
ATOM      5  CA  ILE A   1     -21.274 -20.715   3.816  0.00  0.00    +0.145 C 
BRANCH   5   6
ATOM      6  N   ILE A   1     -21.605 -20.300   5.170  0.00  0.00    -0.238 NA
ATOM      7  H   ILE A   1     -22.520 -20.563   5.588  0.00  0.00    +0.142 HD
ENDBRANCH   5   6
BRANCH   5   8
ATOM      8  CB  ILE A   1     -22.322 -21.672   3.253  0.00  0.00    +0.025 C 
ATOM      9  CG2 ILE A   1     -21.928 -22.085   1.849  0.00  0.00    +0.002 C 
BRANCH   8  10
ATOM     10  CG1 ILE A   1     -22.359 -22.922   4.137  0.00  0.00    +0.002 C 
ATOM     11  CD1 ILE A   1     -23.429 -23.874   3.819  0.00  0.00    +0.000 C 
ENDBRANCH   8  10
ENDBRANCH   5   8
ENDBRANCH   1   5
BRANCH   2  12
ATOM     12  CA  MET A   2     -22.024 -17.369   2.223  0.00  0.00    +0.138 C 
BRANCH  12  13
ATOM     13  C   MET A   2     -20.779 -16.494   2.466  0.00  0.00    +0.227 C 
ATOM     14  O   MET A   2     -20.036 -16.189   1.542  0.00  0.00    -0.286 OA
ENDBRANCH  12  13
BRANCH  12  15
ATOM     15  CB  MET A   2     -23.316 -16.567   2.452  0.00  0.00    +0.039 C 
BRANCH  15  16
ATOM     16  CG  MET A   2     -23.439 -15.428   1.503  0.00  0.00    +0.060 C 
BRANCH  16  17
ATOM     17  SD  MET A   2     -25.049 -14.626   1.676  0.00  0.00    -0.139 S 
ATOM     18  CE  MET A   2     -24.973 -13.571   0.248  0.00  0.00    +0.069 C 
ENDBRANCH  16  17
ENDBRANCH  15  16
ENDBRANCH  12  15
ENDBRANCH   2  12
TORSDOF 9
REMARK  Name = ../refined-set-2016/4ea2/4ea2_pocket.pdb
REMARK  233 active torsions:
REMARK  status: ('A' for Active; 'I' for Inactive)
REMARK    1  A    between atoms: _1  and  _3
REMARK    2  A    between atoms: _3  and  _4
REMARK    3  A    between atoms: _3  and  _6
REMARK    4  A    between atoms: _6  and  _7
REMARK    5  A    between atoms: _10  and  _12
REMARK    6  A    between atoms: _12  and  _13
REMARK    7  A    between atoms: _12  and  _15
REMARK    8  A    between atoms: _15  and  _16
REMARK    9  A    between atoms: _16  and  _17
REMARK   10  A    between atoms: _19  and  _21
REMARK   11  A    between atoms: _21  and  _22
REMARK   12  A    between atoms: _21  and  _24
REMARK   13  A    between atoms: _24  and  _25
REMARK   14  A    between atoms: _30  and  _32
REMARK   15  A    between atoms: _32  and  _33
REMARK   16  A    between atoms: _32  and  _35
REMARK   17  A    between atoms: _35  and  _36
REMARK   18  A    between atoms: _38  and  _40
REMARK   19  A    between atoms: _40  and  _41
REMARK   20  A    between atoms: _40  and  _43
REMARK   21  A    between atoms: _43  and  _44
REMARK   22  A    between atoms: _46  and  _48
REMARK   23  A    between atoms: _48  and  _49
REMARK   24  A    between atoms: _48  and  _51
REMARK   25  A    between atoms: _51  and  _52
REMARK   26  A    between atoms: _58  and  _60
REMARK   27  A    between atoms: _60  and  _61
REMARK   28  A    between atoms: _64  and  _66
REMARK   29  A    between atoms: _66  and  _67
REMARK   30  A    between atoms: _66  and  _69
REMARK   31  A    between atoms: _69  and  _70
REMARK   32  A    between atoms: _76  and  _78
REMARK   33  A    between atoms: _78  and  _79
REMARK   34  A    between atoms: _78  and  _81
REMARK   35  A    between atoms: _84  and  _86
REMARK   36  A    between atoms: _86  and  _87
REMARK   37  A    between atoms: _86  and  _89
REMARK   38  A    between atoms: _89  and  _90
REMARK   39  A    between atoms: _93  and  _95
REMARK   40  A    between atoms: _95  and  _96
REMARK   41  A    between atoms: _95  and  _98
REMARK   42  A    between atoms: _98  and  _99
REMARK   43  A    between atoms: _104  and  _105
REMARK   44  A    between atoms: _107  and  _109
REMARK   45  A    between atoms: _109  and  _110
REMARK   46  A    between atoms: _113  and  _115
REMARK   47  A    between atoms: _115  and  _116
REMARK   48  A    between atoms: _115  and  _118
REMARK   49  A    between atoms: _121  and  _123
REMARK   50  A    between atoms: _123  and  _124
REMARK   51  A    between atoms: _123  and  _126
REMARK   52  A    between atoms: _128  and  _130
REMARK   53  A    between atoms: _130  and  _131
REMARK   54  A    between atoms: _130  and  _133
REMARK   55  A    between atoms: _133  and  _134
REMARK   56  A    between atoms: _134  and  _135
REMARK   57  A    between atoms: _135  and  _136
REMARK   58  A    between atoms: _145  and  _147
REMARK   59  A    between atoms: _147  and  _148
REMARK   60  A    between atoms: _147  and  _150
REMARK   61  A    between atoms: _150  and  _151
REMARK   62  A    between atoms: _151  and  _152
REMARK   63  A    between atoms: _152  and  _153
REMARK   64  A    between atoms: _153  and  _154
REMARK   65  A    between atoms: _158  and  _160
REMARK   66  A    between atoms: _160  and  _161
REMARK   67  A    between atoms: _160  and  _163
REMARK   68  A    between atoms: _163  and  _164
REMARK   69  A    between atoms: _167  and  _169
REMARK   70  A    between atoms: _169  and  _170
REMARK   71  A    between atoms: _169  and  _172
REMARK   72  A    between atoms: _172  and  _173
REMARK   73  A    between atoms: _176  and  _178
REMARK   74  A    between atoms: _178  and  _179
REMARK   75  A    between atoms: _178  and  _181
REMARK   76  A    between atoms: _181  and  _182
REMARK   77  A    between atoms: _185  and  _187
REMARK   78  A    between atoms: _187  and  _188
REMARK   79  A    between atoms: _187  and  _190
REMARK   80  A    between atoms: _190  and  _191
REMARK   81  A    between atoms: _197  and  _199
REMARK   82  A    between atoms: _199  and  _200
REMARK   83  A    between atoms: _199  and  _202
REMARK   84  A    between atoms: _202  and  _203
REMARK   85  A    between atoms: _206  and  _208
REMARK   86  A    between atoms: _208  and  _209
REMARK   87  A    between atoms: _208  and  _211
REMARK   88  A    between atoms: _211  and  _212
REMARK   89  A    between atoms: _215  and  _217
REMARK   90  A    between atoms: _217  and  _218
REMARK   91  A    between atoms: _217  and  _220
REMARK   92  A    between atoms: _223  and  _225
REMARK   93  A    between atoms: _225  and  _226
REMARK   94  A    between atoms: _225  and  _228
REMARK   95  A    between atoms: _228  and  _229
REMARK   96  A    between atoms: _234  and  _235
REMARK   97  A    between atoms: _237  and  _239
REMARK   98  A    between atoms: _239  and  _240
REMARK   99  A    between atoms: _239  and  _242
REMARK  100  A    between atoms: _244  and  _246
REMARK  101  A    between atoms: _246  and  _247
REMARK  102  A    between atoms: _246  and  _249
REMARK  103  A    between atoms: _249  and  _250
REMARK  104  A    between atoms: _255  and  _256
REMARK  105  A    between atoms: _258  and  _260
REMARK  106  A    between atoms: _260  and  _261
REMARK  107  A    between atoms: _263  and  _265
REMARK  108  A    between atoms: _265  and  _266
REMARK  109  A    between atoms: _265  and  _268
REMARK  110  A    between atoms: _271  and  _273
REMARK  111  A    between atoms: _273  and  _274
REMARK  112  A    between atoms: _277  and  _279
REMARK  113  A    between atoms: _279  and  _280
REMARK  114  A    between atoms: _282  and  _284
REMARK  115  A    between atoms: _284  and  _285
REMARK  116  A    between atoms: _284  and  _287
REMARK  117  A    between atoms: _287  and  _288
REMARK  118  A    between atoms: _291  and  _293
REMARK  119  A    between atoms: _293  and  _294
REMARK  120  A    between atoms: _293  and  _296
REMARK  121  A    between atoms: _299  and  _301
REMARK  122  A    between atoms: _301  and  _302
REMARK  123  A    between atoms: _304  and  _306
REMARK  124  A    between atoms: _306  and  _307
REMARK  125  A    between atoms: _306  and  _309
REMARK  126  A    between atoms: _309  and  _310
REMARK  127  A    between atoms: _310  and  _311
REMARK  128  A    between atoms: _314  and  _316
REMARK  129  A    between atoms: _316  and  _317
REMARK  130  A    between atoms: _316  and  _319
REMARK  131  A    between atoms: _322  and  _324
REMARK  132  A    between atoms: _324  and  _325
REMARK  133  A    between atoms: _324  and  _327
REMARK  134  A    between atoms: _327  and  _328
REMARK  135  A    between atoms: _331  and  _333
REMARK  136  A    between atoms: _333  and  _334
REMARK  137  A    between atoms: _333  and  _336
REMARK  138  A    between atoms: _336  and  _337
REMARK  139  A    between atoms: _340  and  _342
REMARK  140  A    between atoms: _342  and  _343
REMARK  141  A    between atoms: _342  and  _345
REMARK  142  A    between atoms: _345  and  _346
REMARK  143  A    between atoms: _349  and  _351
REMARK  144  A    between atoms: _351  and  _352
REMARK  145  A    between atoms: _351  and  _354
REMARK  146  A    between atoms: _357  and  _359
REMARK  147  A    between atoms: _359  and  _360
REMARK  148  A    between atoms: _363  and  _365
REMARK  149  A    between atoms: _365  and  _366
REMARK  150  A    between atoms: _365  and  _368
REMARK  151  A    between atoms: _368  and  _369
REMARK  152  A    between atoms: _369  and  _370
REMARK  153  A    between atoms: _370  and  _371
REMARK  154  A    between atoms: _380  and  _382
REMARK  155  A    between atoms: _382  and  _383
REMARK  156  A    between atoms: _382  and  _385
REMARK  157  A    between atoms: _385  and  _386
REMARK  158  A    between atoms: _386  and  _387
REMARK  159  A    between atoms: _387  and  _388
REMARK  160  A    between atoms: _397  and  _399
REMARK  161  A    between atoms: _399  and  _400
REMARK  162  A    between atoms: _399  and  _402
REMARK  163  A    between atoms: _402  and  _403
REMARK  164  A    between atoms: _406  and  _408
REMARK  165  A    between atoms: _408  and  _409
REMARK  166  A    between atoms: _411  and  _413
REMARK  167  A    between atoms: _413  and  _414
REMARK  168  A    between atoms: _413  and  _416
REMARK  169  A    between atoms: _416  and  _417
REMARK  170  A    between atoms: _417  and  _418
REMARK  171  A    between atoms: _421  and  _423
REMARK  172  A    between atoms: _423  and  _424
REMARK  173  A    between atoms: _423  and  _426
REMARK  174  A    between atoms: _426  and  _427
REMARK  175  A    between atoms: _429  and  _431
REMARK  176  A    between atoms: _431  and  _432
REMARK  177  A    between atoms: _431  and  _434
REMARK  178  A    between atoms: _434  and  _435
REMARK  179  A    between atoms: _438  and  _440
REMARK  180  A    between atoms: _440  and  _441
REMARK  181  A    between atoms: _440  and  _443
REMARK  182  A    between atoms: _443  and  _444
REMARK  183  A    between atoms: _444  and  _445
REMARK  184  A    between atoms: _450  and  _452
REMARK  185  A    between atoms: _452  and  _453
REMARK  186  A    between atoms: _452  and  _455
REMARK  187  A    between atoms: _455  and  _456
REMARK  188  A    between atoms: _459  and  _461
REMARK  189  A    between atoms: _461  and  _462
REMARK  190  A    between atoms: _461  and  _464
REMARK  191  A    between atoms: _464  and  _465
REMARK  192  A    between atoms: _468  and  _470
REMARK  193  A    between atoms: _470  and  _471
REMARK  194  A    between atoms: _470  and  _473
REMARK  195  A    between atoms: _473  and  _474
REMARK  196  A    between atoms: _479  and  _481
REMARK  197  A    between atoms: _481  and  _482
REMARK  198  A    between atoms: _481  and  _484
REMARK  199  A    between atoms: _484  and  _485
REMARK  200  A    between atoms: _488  and  _490
REMARK  201  A    between atoms: _490  and  _491
REMARK  202  A    between atoms: _490  and  _493
REMARK  203  A    between atoms: _493  and  _494
REMARK  204  A    between atoms: _494  and  _495
REMARK  205  A    between atoms: _495  and  _496
REMARK  206  A    between atoms: _505  and  _507
REMARK  207  A    between atoms: _507  and  _508
REMARK  208  A    between atoms: _507  and  _510
REMARK  209  A    between atoms: _510  and  _511
REMARK  210  A    between atoms: _514  and  _516
REMARK  211  A    between atoms: _516  and  _517
REMARK  212  A    between atoms: _516  and  _519
REMARK  213  A    between atoms: _522  and  _524
REMARK  214  A    between atoms: _524  and  _525
REMARK  215  A    between atoms: _524  and  _527
REMARK  216  A    between atoms: _527  and  _528
REMARK  217  A    between atoms: _534  and  _536
REMARK  218  A    between atoms: _536  and  _537
REMARK  219  A    between atoms: _536  and  _539
REMARK  220  A    between atoms: _539  and  _540
REMARK  221  A    between atoms: _543  and  _545
REMARK  222  A    between atoms: _545  and  _546
REMARK  223  A    between atoms: _549  and  _551
REMARK  224  A    between atoms: _551  and  _552
REMARK  225  A    between atoms: _555  and  _557
REMARK  226  A    between atoms: _557  and  _558
REMARK  227  A    between atoms: _557  and  _560
REMARK  228  A    between atoms: _560  and  _561
REMARK  229  A    between atoms: _566  and  _567
REMARK  230  A    between atoms: _569  and  _571
REMARK  231  A    between atoms: _571  and  _572
REMARK  232  A    between atoms: _571  and  _574
REMARK  233  A    between atoms: _574  and  _575
REMARK                            x       y       z     vdW  Elec       q    Type
REMARK                         _______ _______ _______ _____ _____    ______ ____
ROOT
ATOM      1  C   HIS A   1     -17.275 -16.608  -0.752  0.00  0.00    +0.239 C 
ATOM      2  N   SER A   2     -18.029 -15.640  -0.214  0.00  0.00    -0.296 N 
ATOM      3  H   SER A   2     -18.589 -15.841   0.639  0.00  0.00    +0.150 HD
ATOM      4  O   HIS A   1     -16.475 -16.395  -1.665  0.00  0.00    -0.274 OA
ENDROOT
BRANCH   1   5
ATOM      5  CA  HIS A   1     -17.486 -18.038  -0.264  0.00  0.00    +0.151 C 
BRANCH   5   6
ATOM      6  N   HIS A   1     -17.640 -18.098   1.185  0.00  0.00    -0.238 NA
ATOM      7  H   HIS A   1     -18.580 -18.263   1.598  0.00  0.00    +0.142 HD
ENDBRANCH   5   6
BRANCH   5   8
ATOM      8  CB  HIS A   1     -18.672 -18.691  -0.997  0.00  0.00    +0.074 C 
BRANCH   8   9
ATOM      9  CG  HIS A   1     -18.514 -18.745  -2.496  0.00  0.00    +0.082 A 
ATOM     10  CD2 HIS A   1     -17.814 -19.594  -3.291  0.00  0.00    +0.115 A 
ATOM     11  NE2 HIS A   1     -17.939 -19.142  -4.584  0.00  0.00    -0.221 NA
ATOM     12  CE1 HIS A   1     -18.680 -18.046  -4.587  0.00  0.00    +0.199 A 
ATOM     13  ND1 HIS A   1     -19.040 -17.783  -3.340  0.00  0.00    -0.227 NA
ENDBRANCH   8   9
ENDBRANCH   5   8
ENDBRANCH   1   5
BRANCH   2  14
ATOM     14  CA  SER A   2     -18.077 -14.287  -0.816  0.00  0.00    +0.166 C 
BRANCH  14  15
ATOM     15  CB  SER A   2     -18.135 -13.194   0.218  0.00  0.00    +0.229 C 
ATOM     16  OG  SER A   2     -19.220 -12.790   0.666  0.00  0.00    -0.286 OA
ENDBRANCH  14  15
BRANCH  14  17
ATOM     17  C   SER A   2     -19.266 -14.099  -1.770  0.00  0.00    +0.165 C 
BRANCH  17  18
ATOM     18  O   SER A   2     -19.196 -12.801  -2.365  0.00  0.00    -0.380 OA
ATOM     19  H   SER A   2     -19.228 -12.112  -1.655  0.00  0.00    +0.211 HD
ENDBRANCH  17  18
ENDBRANCH  14  17
ENDBRANCH   2  14
TORSDOF 8
REMARK  Name = ../refined-set-2016/4ea2/4ea2_pocket.pdb
REMARK  233 active torsions:
REMARK  status: ('A' for Active; 'I' for Inactive)
REMARK    1  A    between atoms: _1  and  _3
REMARK    2  A    between atoms: _3  and  _4
REMARK    3  A    between atoms: _3  and  _6
REMARK    4  A    between atoms: _6  and  _7
REMARK    5  A    between atoms: _10  and  _12
REMARK    6  A    between atoms: _12  and  _13
REMARK    7  A    between atoms: _12  and  _15
REMARK    8  A    between atoms: _15  and  _16
REMARK    9  A    between atoms: _16  and  _17
REMARK   10  A    between atoms: _19  and  _21
REMARK   11  A    between atoms: _21  and  _22
REMARK   12  A    between atoms: _21  and  _24
REMARK   13  A    between atoms: _24  and  _25
REMARK   14  A    between atoms: _30  and  _32
REMARK   15  A    between atoms: _32  and  _33
REMARK   16  A    between atoms: _32  and  _35
REMARK   17  A    between atoms: _35  and  _36
REMARK   18  A    between atoms: _38  and  _40
REMARK   19  A    between atoms: _40  and  _41
REMARK   20  A    between atoms: _40  and  _43
REMARK   21  A    between atoms: _43  and  _44
REMARK   22  A    between atoms: _46  and  _48
REMARK   23  A    between atoms: _48  and  _49
REMARK   24  A    between atoms: _48  and  _51
REMARK   25  A    between atoms: _51  and  _52
REMARK   26  A    between atoms: _58  and  _60
REMARK   27  A    between atoms: _60  and  _61
REMARK   28  A    between atoms: _64  and  _66
REMARK   29  A    between atoms: _66  and  _67
REMARK   30  A    between atoms: _66  and  _69
REMARK   31  A    between atoms: _69  and  _70
REMARK   32  A    between atoms: _76  and  _78
REMARK   33  A    between atoms: _78  and  _79
REMARK   34  A    between atoms: _78  and  _81
REMARK   35  A    between atoms: _84  and  _86
REMARK   36  A    between atoms: _86  and  _87
REMARK   37  A    between atoms: _86  and  _89
REMARK   38  A    between atoms: _89  and  _90
REMARK   39  A    between atoms: _93  and  _95
REMARK   40  A    between atoms: _95  and  _96
REMARK   41  A    between atoms: _95  and  _98
REMARK   42  A    between atoms: _98  and  _99
REMARK   43  A    between atoms: _104  and  _105
REMARK   44  A    between atoms: _107  and  _109
REMARK   45  A    between atoms: _109  and  _110
REMARK   46  A    between atoms: _113  and  _115
REMARK   47  A    between atoms: _115  and  _116
REMARK   48  A    between atoms: _115  and  _118
REMARK   49  A    between atoms: _121  and  _123
REMARK   50  A    between atoms: _123  and  _124
REMARK   51  A    between atoms: _123  and  _126
REMARK   52  A    between atoms: _128  and  _130
REMARK   53  A    between atoms: _130  and  _131
REMARK   54  A    between atoms: _130  and  _133
REMARK   55  A    between atoms: _133  and  _134
REMARK   56  A    between atoms: _134  and  _135
REMARK   57  A    between atoms: _135  and  _136
REMARK   58  A    between atoms: _145  and  _147
REMARK   59  A    between atoms: _147  and  _148
REMARK   60  A    between atoms: _147  and  _150
REMARK   61  A    between atoms: _150  and  _151
REMARK   62  A    between atoms: _151  and  _152
REMARK   63  A    between atoms: _152  and  _153
REMARK   64  A    between atoms: _153  and  _154
REMARK   65  A    between atoms: _158  and  _160
REMARK   66  A    between atoms: _160  and  _161
REMARK   67  A    between atoms: _160  and  _163
REMARK   68  A    between atoms: _163  and  _164
REMARK   69  A    between atoms: _167  and  _169
REMARK   70  A    between atoms: _169  and  _170
REMARK   71  A    between atoms: _169  and  _172
REMARK   72  A    between atoms: _172  and  _173
REMARK   73  A    between atoms: _176  and  _178
REMARK   74  A    between atoms: _178  and  _179
REMARK   75  A    between atoms: _178  and  _181
REMARK   76  A    between atoms: _181  and  _182
REMARK   77  A    between atoms: _185  and  _187
REMARK   78  A    between atoms: _187  and  _188
REMARK   79  A    between atoms: _187  and  _190
REMARK   80  A    between atoms: _190  and  _191
REMARK   81  A    between atoms: _197  and  _199
REMARK   82  A    between atoms: _199  and  _200
REMARK   83  A    between atoms: _199  and  _202
REMARK   84  A    between atoms: _202  and  _203
REMARK   85  A    between atoms: _206  and  _208
REMARK   86  A    between atoms: _208  and  _209
REMARK   87  A    between atoms: _208  and  _211
REMARK   88  A    between atoms: _211  and  _212
REMARK   89  A    between atoms: _215  and  _217
REMARK   90  A    between atoms: _217  and  _218
REMARK   91  A    between atoms: _217  and  _220
REMARK   92  A    between atoms: _223  and  _225
REMARK   93  A    between atoms: _225  and  _226
REMARK   94  A    between atoms: _225  and  _228
REMARK   95  A    between atoms: _228  and  _229
REMARK   96  A    between atoms: _234  and  _235
REMARK   97  A    between atoms: _237  and  _239
REMARK   98  A    between atoms: _239  and  _240
REMARK   99  A    between atoms: _239  and  _242
REMARK  100  A    between atoms: _244  and  _246
REMARK  101  A    between atoms: _246  and  _247
REMARK  102  A    between atoms: _246  and  _249
REMARK  103  A    between atoms: _249  and  _250
REMARK  104  A    between atoms: _255  and  _256
REMARK  105  A    between atoms: _258  and  _260
REMARK  106  A    between atoms: _260  and  _261
REMARK  107  A    between atoms: _263  and  _265
REMARK  108  A    between atoms: _265  and  _266
REMARK  109  A    between atoms: _265  and  _268
REMARK  110  A    between atoms: _271  and  _273
REMARK  111  A    between atoms: _273  and  _274
REMARK  112  A    between atoms: _277  and  _279
REMARK  113  A    between atoms: _279  and  _280
REMARK  114  A    between atoms: _282  and  _284
REMARK  115  A    between atoms: _284  and  _285
REMARK  116  A    between atoms: _284  and  _287
REMARK  117  A    between atoms: _287  and  _288
REMARK  118  A    between atoms: _291  and  _293
REMARK  119  A    between atoms: _293  and  _294
REMARK  120  A    between atoms: _293  and  _296
REMARK  121  A    between atoms: _299  and  _301
REMARK  122  A    between atoms: _301  and  _302
REMARK  123  A    between atoms: _304  and  _306
REMARK  124  A    between atoms: _306  and  _307
REMARK  125  A    between atoms: _306  and  _309
REMARK  126  A    between atoms: _309  and  _310
REMARK  127  A    between atoms: _310  and  _311
REMARK  128  A    between atoms: _314  and  _316
REMARK  129  A    between atoms: _316  and  _317
REMARK  130  A    between atoms: _316  and  _319
REMARK  131  A    between atoms: _322  and  _324
REMARK  132  A    between atoms: _324  and  _325
REMARK  133  A    between atoms: _324  and  _327
REMARK  134  A    between atoms: _327  and  _328
REMARK  135  A    between atoms: _331  and  _333
REMARK  136  A    between atoms: _333  and  _334
REMARK  137  A    between atoms: _333  and  _336
REMARK  138  A    between atoms: _336  and  _337
REMARK  139  A    between atoms: _340  and  _342
REMARK  140  A    between atoms: _342  and  _343
REMARK  141  A    between atoms: _342  and  _345
REMARK  142  A    between atoms: _345  and  _346
REMARK  143  A    between atoms: _349  and  _351
REMARK  144  A    between atoms: _351  and  _352
REMARK  145  A    between atoms: _351  and  _354
REMARK  146  A    between atoms: _357  and  _359
REMARK  147  A    between atoms: _359  and  _360
REMARK  148  A    between atoms: _363  and  _365
REMARK  149  A    between atoms: _365  and  _366
REMARK  150  A    between atoms: _365  and  _368
REMARK  151  A    between atoms: _368  and  _369
REMARK  152  A    between atoms: _369  and  _370
REMARK  153  A    between atoms: _370  and  _371
REMARK  154  A    between atoms: _380  and  _382
REMARK  155  A    between atoms: _382  and  _383
REMARK  156  A    between atoms: _382  and  _385
REMARK  157  A    between atoms: _385  and  _386
REMARK  158  A    between atoms: _386  and  _387
REMARK  159  A    between atoms: _387  and  _388
REMARK  160  A    between atoms: _397  and  _399
REMARK  161  A    between atoms: _399  and  _400
REMARK  162  A    between atoms: _399  and  _402
REMARK  163  A    between atoms: _402  and  _403
REMARK  164  A    between atoms: _406  and  _408
REMARK  165  A    between atoms: _408  and  _409
REMARK  166  A    between atoms: _411  and  _413
REMARK  167  A    between atoms: _413  and  _414
REMARK  168  A    between atoms: _413  and  _416
REMARK  169  A    between atoms: _416  and  _417
REMARK  170  A    between atoms: _417  and  _418
REMARK  171  A    between atoms: _421  and  _423
REMARK  172  A    between atoms: _423  and  _424
REMARK  173  A    between atoms: _423  and  _426
REMARK  174  A    between atoms: _426  and  _427
REMARK  175  A    between atoms: _429  and  _431
REMARK  176  A    between atoms: _431  and  _432
REMARK  177  A    between atoms: _431  and  _434
REMARK  178  A    between atoms: _434  and  _435
REMARK  179  A    between atoms: _438  and  _440
REMARK  180  A    between atoms: _440  and  _441
REMARK  181  A    between atoms: _440  and  _443
REMARK  182  A    between atoms: _443  and  _444
REMARK  183  A    between atoms: _444  and  _445
REMARK  184  A    between atoms: _450  and  _452
REMARK  185  A    between atoms: _452  and  _453
REMARK  186  A    between atoms: _452  and  _455
REMARK  187  A    between atoms: _455  and  _456
REMARK  188  A    between atoms: _459  and  _461
REMARK  189  A    between atoms: _461  and  _462
REMARK  190  A    between atoms: _461  and  _464
REMARK  191  A    between atoms: _464  and  _465
REMARK  192  A    between atoms: _468  and  _470
REMARK  193  A    between atoms: _470  and  _471
REMARK  194  A    between atoms: _470  and  _473
REMARK  195  A    between atoms: _473  and  _474
REMARK  196  A    between atoms: _479  and  _481
REMARK  197  A    between atoms: _481  and  _482
REMARK  198  A    between atoms: _481  and  _484
REMARK  199  A    between atoms: _484  and  _485
REMARK  200  A    between atoms: _488  and  _490
REMARK  201  A    between atoms: _490  and  _491
REMARK  202  A    between atoms: _490  and  _493
REMARK  203  A    between atoms: _493  and  _494
REMARK  204  A    between atoms: _494  and  _495
REMARK  205  A    between atoms: _495  and  _496
REMARK  206  A    between atoms: _505  and  _507
REMARK  207  A    between atoms: _507  and  _508
REMARK  208  A    between atoms: _507  and  _510
REMARK  209  A    between atoms: _510  and  _511
REMARK  210  A    between atoms: _514  and  _516
REMARK  211  A    between atoms: _516  and  _517
REMARK  212  A    between atoms: _516  and  _519
REMARK  213  A    between atoms: _522  and  _524
REMARK  214  A    between atoms: _524  and  _525
REMARK  215  A    between atoms: _524  and  _527
REMARK  216  A    between atoms: _527  and  _528
REMARK  217  A    between atoms: _534  and  _536
REMARK  218  A    between atoms: _536  and  _537
REMARK  219  A    between atoms: _536  and  _539
REMARK  220  A    between atoms: _539  and  _540
REMARK  221  A    between atoms: _543  and  _545
REMARK  222  A    between atoms: _545  and  _546
REMARK  223  A    between atoms: _549  and  _551
REMARK  224  A    between atoms: _551  and  _552
REMARK  225  A    between atoms: _555  and  _557
REMARK  226  A    between atoms: _557  and  _558
REMARK  227  A    between atoms: _557  and  _560
REMARK  228  A    between atoms: _560  and  _561
REMARK  229  A    between atoms: _566  and  _567
REMARK  230  A    between atoms: _569  and  _571
REMARK  231  A    between atoms: _571  and  _572
REMARK  232  A    between atoms: _571  and  _574
REMARK  233  A    between atoms: _574  and  _575
REMARK                            x       y       z     vdW  Elec       q    Type
REMARK                         _______ _______ _______ _____ _____    ______ ____
ROOT
ATOM      1  C   SER A   1     -19.953  -9.038  -0.600  0.00  0.00    +0.241 C 
ATOM      2  O   SER A   1     -20.572  -8.100  -0.022  0.00  0.00    -0.274 OA
ATOM      3  N   PHE A   2     -20.555 -10.165  -1.009  0.00  0.00    -0.298 N 
ATOM      4  H   PHE A   2     -19.989 -10.962  -1.364  0.00  0.00    +0.150 HD
ENDROOT
BRANCH   1   5
ATOM      5  CA  SER A   1     -18.447  -8.961  -0.781  0.00  0.00    +0.174 C 
BRANCH   5   6
ATOM      6  N   SER A   1     -17.700 -10.100  -0.229  0.00  0.00    -0.236 NA
ATOM      7  H   SER A   1     -17.176 -10.717  -0.883  0.00  0.00    +0.142 HD
ENDBRANCH   5   6
BRANCH   5   8
ATOM      8  CB  SER A   1     -18.103  -8.758  -2.249  0.00  0.00    +0.163 C 
BRANCH   8   9
ATOM      9  OG  SER A   1     -16.742  -9.080  -2.481  0.00  0.00    -0.380 OA
ATOM     10  H   SER A   1     -16.531  -8.944  -3.439  0.00  0.00    +0.211 HD
ENDBRANCH   8   9
ENDBRANCH   5   8
ENDBRANCH   1   5
BRANCH   3  11
ATOM     11  CA  PHE A   2     -22.012 -10.265  -0.952  0.00  0.00    +0.141 C 
BRANCH  11  12
ATOM     12  C   PHE A   2     -22.454 -10.372   0.476  0.00  0.00    +0.227 C 
ATOM     13  O   PHE A   2     -23.557  -9.948   0.848  0.00  0.00    -0.286 OA
ENDBRANCH  11  12
BRANCH  11  14
ATOM     14  CB  PHE A   2     -22.535 -11.473  -1.764  0.00  0.00    +0.054 C 
BRANCH  14  15
ATOM     15  CG  PHE A   2     -22.356 -11.313  -3.213  0.00  0.00    -0.020 A 
ATOM     16  CD2 PHE A   2     -22.584 -10.068  -3.815  0.00  0.00    -0.004 A 
ATOM     17  CE2 PHE A   2     -22.273  -9.849  -5.166  0.00  0.00    -0.000 A 
ATOM     18  CZ  PHE A   2     -21.818 -10.904  -5.940  0.00  0.00    -0.000 A 
ATOM     19  CE1 PHE A   2     -21.625 -12.165  -5.354  0.00  0.00    -0.000 A 
ATOM     20  CD1 PHE A   2     -21.879 -12.358  -3.993  0.00  0.00    -0.004 A 
ENDBRANCH  14  15
ENDBRANCH  11  14
ENDBRANCH   3  11
TORSDOF 8
REMARK  Name = ../refined-set-2016/4ea2/4ea2_pocket.pdb
REMARK  233 active torsions:
REMARK  status: ('A' for Active; 'I' for Inactive)
REMARK    1  A    between atoms: _1  and  _3
REMARK    2  A    between atoms: _3  and  _4
REMARK    3  A    between atoms: _3  and  _6
REMARK    4  A    between atoms: _6  and  _7
REMARK    5  A    between atoms: _10  and  _12
REMARK    6  A    between atoms: _12  and  _13
REMARK    7  A    between atoms: _12  and  _15
REMARK    8  A    between atoms: _15  and  _16
REMARK    9  A    between atoms: _16  and  _17
REMARK   10  A    between atoms: _19  and  _21
REMARK   11  A    between atoms: _21  and  _22
REMARK   12  A    between atoms: _21  and  _24
REMARK   13  A    between atoms: _24  and  _25
REMARK   14  A    between atoms: _30  and  _32
REMARK   15  A    between atoms: _32  and  _33
REMARK   16  A    between atoms: _32  and  _35
REMARK   17  A    between atoms: _35  and  _36
REMARK   18  A    between atoms: _38  and  _40
REMARK   19  A    between atoms: _40  and  _41
REMARK   20  A    between atoms: _40  and  _43
REMARK   21  A    between atoms: _43  and  _44
REMARK   22  A    between atoms: _46  and  _48
REMARK   23  A    between atoms: _48  and  _49
REMARK   24  A    between atoms: _48  and  _51
REMARK   25  A    between atoms: _51  and  _52
REMARK   26  A    between atoms: _58  and  _60
REMARK   27  A    between atoms: _60  and  _61
REMARK   28  A    between atoms: _64  and  _66
REMARK   29  A    between atoms: _66  and  _67
REMARK   30  A    between atoms: _66  and  _69
REMARK   31  A    between atoms: _69  and  _70
REMARK   32  A    between atoms: _76  and  _78
REMARK   33  A    between atoms: _78  and  _79
REMARK   34  A    between atoms: _78  and  _81
REMARK   35  A    between atoms: _84  and  _86
REMARK   36  A    between atoms: _86  and  _87
REMARK   37  A    between atoms: _86  and  _89
REMARK   38  A    between atoms: _89  and  _90
REMARK   39  A    between atoms: _93  and  _95
REMARK   40  A    between atoms: _95  and  _96
REMARK   41  A    between atoms: _95  and  _98
REMARK   42  A    between atoms: _98  and  _99
REMARK   43  A    between atoms: _104  and  _105
REMARK   44  A    between atoms: _107  and  _109
REMARK   45  A    between atoms: _109  and  _110
REMARK   46  A    between atoms: _113  and  _115
REMARK   47  A    between atoms: _115  and  _116
REMARK   48  A    between atoms: _115  and  _118
REMARK   49  A    between atoms: _121  and  _123
REMARK   50  A    between atoms: _123  and  _124
REMARK   51  A    between atoms: _123  and  _126
REMARK   52  A    between atoms: _128  and  _130
REMARK   53  A    between atoms: _130  and  _131
REMARK   54  A    between atoms: _130  and  _133
REMARK   55  A    between atoms: _133  and  _134
REMARK   56  A    between atoms: _134  and  _135
REMARK   57  A    between atoms: _135  and  _136
REMARK   58  A    between atoms: _145  and  _147
REMARK   59  A    between atoms: _147  and  _148
REMARK   60  A    between atoms: _147  and  _150
REMARK   61  A    between atoms: _150  and  _151
REMARK   62  A    between atoms: _151  and  _152
REMARK   63  A    between atoms: _152  and  _153
REMARK   64  A    between atoms: _153  and  _154
REMARK   65  A    between atoms: _158  and  _160
REMARK   66  A    between atoms: _160  and  _161
REMARK   67  A    between atoms: _160  and  _163
REMARK   68  A    between atoms: _163  and  _164
REMARK   69  A    between atoms: _167  and  _169
REMARK   70  A    between atoms: _169  and  _170
REMARK   71  A    between atoms: _169  and  _172
REMARK   72  A    between atoms: _172  and  _173
REMARK   73  A    between atoms: _176  and  _178
REMARK   74  A    between atoms: _178  and  _179
REMARK   75  A    between atoms: _178  and  _181
REMARK   76  A    between atoms: _181  and  _182
REMARK   77  A    between atoms: _185  and  _187
REMARK   78  A    between atoms: _187  and  _188
REMARK   79  A    between atoms: _187  and  _190
REMARK   80  A    between atoms: _190  and  _191
REMARK   81  A    between atoms: _197  and  _199
REMARK   82  A    between atoms: _199  and  _200
REMARK   83  A    between atoms: _199  and  _202
REMARK   84  A    between atoms: _202  and  _203
REMARK   85  A    between atoms: _206  and  _208
REMARK   86  A    between atoms: _208  and  _209
REMARK   87  A    between atoms: _208  and  _211
REMARK   88  A    between atoms: _211  and  _212
REMARK   89  A    between atoms: _215  and  _217
REMARK   90  A    between atoms: _217  and  _218
REMARK   91  A    between atoms: _217  and  _220
REMARK   92  A    between atoms: _223  and  _225
REMARK   93  A    between atoms: _225  and  _226
REMARK   94  A    between atoms: _225  and  _228
REMARK   95  A    between atoms: _228  and  _229
REMARK   96  A    between atoms: _234  and  _235
REMARK   97  A    between atoms: _237  and  _239
REMARK   98  A    between atoms: _239  and  _240
REMARK   99  A    between atoms: _239  and  _242
REMARK  100  A    between atoms: _244  and  _246
REMARK  101  A    between atoms: _246  and  _247
REMARK  102  A    between atoms: _246  and  _249
REMARK  103  A    between atoms: _249  and  _250
REMARK  104  A    between atoms: _255  and  _256
REMARK  105  A    between atoms: _258  and  _260
REMARK  106  A    between atoms: _260  and  _261
REMARK  107  A    between atoms: _263  and  _265
REMARK  108  A    between atoms: _265  and  _266
REMARK  109  A    between atoms: _265  and  _268
REMARK  110  A    between atoms: _271  and  _273
REMARK  111  A    between atoms: _273  and  _274
REMARK  112  A    between atoms: _277  and  _279
REMARK  113  A    between atoms: _279  and  _280
REMARK  114  A    between atoms: _282  and  _284
REMARK  115  A    between atoms: _284  and  _285
REMARK  116  A    between atoms: _284  and  _287
REMARK  117  A    between atoms: _287  and  _288
REMARK  118  A    between atoms: _291  and  _293
REMARK  119  A    between atoms: _293  and  _294
REMARK  120  A    between atoms: _293  and  _296
REMARK  121  A    between atoms: _299  and  _301
REMARK  122  A    between atoms: _301  and  _302
REMARK  123  A    between atoms: _304  and  _306
REMARK  124  A    between atoms: _306  and  _307
REMARK  125  A    between atoms: _306  and  _309
REMARK  126  A    between atoms: _309  and  _310
REMARK  127  A    between atoms: _310  and  _311
REMARK  128  A    between atoms: _314  and  _316
REMARK  129  A    between atoms: _316  and  _317
REMARK  130  A    between atoms: _316  and  _319
REMARK  131  A    between atoms: _322  and  _324
REMARK  132  A    between atoms: _324  and  _325
REMARK  133  A    between atoms: _324  and  _327
REMARK  134  A    between atoms: _327  and  _328
REMARK  135  A    between atoms: _331  and  _333
REMARK  136  A    between atoms: _333  and  _334
REMARK  137  A    between atoms: _333  and  _336
REMARK  138  A    between atoms: _336  and  _337
REMARK  139  A    between atoms: _340  and  _342
REMARK  140  A    between atoms: _342  and  _343
REMARK  141  A    between atoms: _342  and  _345
REMARK  142  A    between atoms: _345  and  _346
REMARK  143  A    between atoms: _349  and  _351
REMARK  144  A    between atoms: _351  and  _352
REMARK  145  A    between atoms: _351  and  _354
REMARK  146  A    between atoms: _357  and  _359
REMARK  147  A    between atoms: _359  and  _360
REMARK  148  A    between atoms: _363  and  _365
REMARK  149  A    between atoms: _365  and  _366
REMARK  150  A    between atoms: _365  and  _368
REMARK  151  A    between atoms: _368  and  _369
REMARK  152  A    between atoms: _369  and  _370
REMARK  153  A    between atoms: _370  and  _371
REMARK  154  A    between atoms: _380  and  _382
REMARK  155  A    between atoms: _382  and  _383
REMARK  156  A    between atoms: _382  and  _385
REMARK  157  A    between atoms: _385  and  _386
REMARK  158  A    between atoms: _386  and  _387
REMARK  159  A    between atoms: _387  and  _388
REMARK  160  A    between atoms: _397  and  _399
REMARK  161  A    between atoms: _399  and  _400
REMARK  162  A    between atoms: _399  and  _402
REMARK  163  A    between atoms: _402  and  _403
REMARK  164  A    between atoms: _406  and  _408
REMARK  165  A    between atoms: _408  and  _409
REMARK  166  A    between atoms: _411  and  _413
REMARK  167  A    between atoms: _413  and  _414
REMARK  168  A    between atoms: _413  and  _416
REMARK  169  A    between atoms: _416  and  _417
REMARK  170  A    between atoms: _417  and  _418
REMARK  171  A    between atoms: _421  and  _423
REMARK  172  A    between atoms: _423  and  _424
REMARK  173  A    between atoms: _423  and  _426
REMARK  174  A    between atoms: _426  and  _427
REMARK  175  A    between atoms: _429  and  _431
REMARK  176  A    between atoms: _431  and  _432
REMARK  177  A    between atoms: _431  and  _434
REMARK  178  A    between atoms: _434  and  _435
REMARK  179  A    between atoms: _438  and  _440
REMARK  180  A    between atoms: _440  and  _441
REMARK  181  A    between atoms: _440  and  _443
REMARK  182  A    between atoms: _443  and  _444
REMARK  183  A    between atoms: _444  and  _445
REMARK  184  A    between atoms: _450  and  _452
REMARK  185  A    between atoms: _452  and  _453
REMARK  186  A    between atoms: _452  and  _455
REMARK  187  A    between atoms: _455  and  _456
REMARK  188  A    between atoms: _459  and  _461
REMARK  189  A    between atoms: _461  and  _462
REMARK  190  A    between atoms: _461  and  _464
REMARK  191  A    between atoms: _464  and  _465
REMARK  192  A    between atoms: _468  and  _470
REMARK  193  A    between atoms: _470  and  _471
REMARK  194  A    between atoms: _470  and  _473
REMARK  195  A    between atoms: _473  and  _474
REMARK  196  A    between atoms: _479  and  _481
REMARK  197  A    between atoms: _481  and  _482
REMARK  198  A    between atoms: _481  and  _484
REMARK  199  A    between atoms: _484  and  _485
REMARK  200  A    between atoms: _488  and  _490
REMARK  201  A    between atoms: _490  and  _491
REMARK  202  A    between atoms: _490  and  _493
REMARK  203  A    between atoms: _493  and  _494
REMARK  204  A    between atoms: _494  and  _495
REMARK  205  A    between atoms: _495  and  _496
REMARK  206  A    between atoms: _505  and  _507
REMARK  207  A    between atoms: _507  and  _508
REMARK  208  A    between atoms: _507  and  _510
REMARK  209  A    between atoms: _510  and  _511
REMARK  210  A    between atoms: _514  and  _516
REMARK  211  A    between atoms: _516  and  _517
REMARK  212  A    between atoms: _516  and  _519
REMARK  213  A    between atoms: _522  and  _524
REMARK  214  A    between atoms: _524  and  _525
REMARK  215  A    between atoms: _524  and  _527
REMARK  216  A    between atoms: _527  and  _528
REMARK  217  A    between atoms: _534  and  _536
REMARK  218  A    between atoms: _536  and  _537
REMARK  219  A    between atoms: _536  and  _539
REMARK  220  A    between atoms: _539  and  _540
REMARK  221  A    between atoms: _543  and  _545
REMARK  222  A    between atoms: _545  and  _546
REMARK  223  A    between atoms: _549  and  _551
REMARK  224  A    between atoms: _551  and  _552
REMARK  225  A    between atoms: _555  and  _557
REMARK  226  A    between atoms: _557  and  _558
REMARK  227  A    between atoms: _557  and  _560
REMARK  228  A    between atoms: _560  and  _561
REMARK  229  A    between atoms: _566  and  _567
REMARK  230  A    between atoms: _569  and  _571
REMARK  231  A    between atoms: _571  and  _572
REMARK  232  A    between atoms: _571  and  _574
REMARK  233  A    between atoms: _574  and  _575
REMARK                            x       y       z     vdW  Elec       q    Type
REMARK                         _______ _______ _______ _____ _____    ______ ____
ROOT
ATOM      1  CA  PHE A   2     -26.486  -8.534   2.169  0.00  0.00    +0.141 C 
ENDROOT
BRANCH   1   4
ATOM      2  C   ALA A   1     -24.941  -6.671   2.134  0.00  0.00    +0.238 C 
ATOM      3  O   ALA A   1     -25.706  -5.979   2.840  0.00  0.00    -0.274 OA
ATOM      4  N   PHE A   2     -25.178  -7.956   1.876  0.00  0.00    -0.298 N 
ATOM      5  H   PHE A   2     -24.429  -8.549   1.465  0.00  0.00    +0.150 HD
BRANCH   2   6
ATOM      6  CA  ALA A   1     -23.656  -6.079   1.546  0.00  0.00    +0.145 C 
ATOM      7  CB  ALA A   1     -23.732  -6.033   0.030  0.00  0.00    +0.028 C 
BRANCH   6   8
ATOM      8  N   ALA A   1     -22.456  -6.826   1.958  0.00  0.00    -0.238 NA
ATOM      9  H   ALA A   1     -21.986  -7.450   1.272  0.00  0.00    +0.142 HD
ENDBRANCH   6   8
ENDBRANCH   2   6
ENDBRANCH   1   4
BRANCH   1  10
ATOM     10  C   PHE A   2     -26.747  -8.776   3.640  0.00  0.00    +0.227 C 
ATOM     11  O   PHE A   2     -27.907  -8.781   4.059  0.00  0.00    -0.286 OA
ENDBRANCH   1  10
BRANCH   1  12
ATOM     12  CB  PHE A   2     -26.769  -9.785   1.329  0.00  0.00    +0.054 C 
BRANCH  12  13
ATOM     13  CG  PHE A   2     -27.028  -9.485  -0.122  0.00  0.00    -0.020 A 
ATOM     14  CD2 PHE A   2     -28.132  -8.726  -0.508  0.00  0.00    -0.004 A 
ATOM     15  CE2 PHE A   2     -28.363  -8.414  -1.861  0.00  0.00    -0.000 A 
ATOM     16  CZ  PHE A   2     -27.477  -8.823  -2.815  0.00  0.00    -0.000 A 
ATOM     17  CE1 PHE A   2     -26.375  -9.600  -2.448  0.00  0.00    -0.000 A 
ATOM     18  CD1 PHE A   2     -26.174  -9.952  -1.103  0.00  0.00    -0.004 A 
ENDBRANCH  12  13
ENDBRANCH   1  12
TORSDOF 6
REMARK  Name = ../refined-set-2016/4ea2/4ea2_pocket.pdb
REMARK  233 active torsions:
REMARK  status: ('A' for Active; 'I' for Inactive)
REMARK    1  A    between atoms: _1  and  _3
REMARK    2  A    between atoms: _3  and  _4
REMARK    3  A    between atoms: _3  and  _6
REMARK    4  A    between atoms: _6  and  _7
REMARK    5  A    between atoms: _10  and  _12
REMARK    6  A    between atoms: _12  and  _13
REMARK    7  A    between atoms: _12  and  _15
REMARK    8  A    between atoms: _15  and  _16
REMARK    9  A    between atoms: _16  and  _17
REMARK   10  A    between atoms: _19  and  _21
REMARK   11  A    between atoms: _21  and  _22
REMARK   12  A    between atoms: _21  and  _24
REMARK   13  A    between atoms: _24  and  _25
REMARK   14  A    between atoms: _30  and  _32
REMARK   15  A    between atoms: _32  and  _33
REMARK   16  A    between atoms: _32  and  _35
REMARK   17  A    between atoms: _35  and  _36
REMARK   18  A    between atoms: _38  and  _40
REMARK   19  A    between atoms: _40  and  _41
REMARK   20  A    between atoms: _40  and  _43
REMARK   21  A    between atoms: _43  and  _44
REMARK   22  A    between atoms: _46  and  _48
REMARK   23  A    between atoms: _48  and  _49
REMARK   24  A    between atoms: _48  and  _51
REMARK   25  A    between atoms: _51  and  _52
REMARK   26  A    between atoms: _58  and  _60
REMARK   27  A    between atoms: _60  and  _61
REMARK   28  A    between atoms: _64  and  _66
REMARK   29  A    between atoms: _66  and  _67
REMARK   30  A    between atoms: _66  and  _69
REMARK   31  A    between atoms: _69  and  _70
REMARK   32  A    between atoms: _76  and  _78
REMARK   33  A    between atoms: _78  and  _79
REMARK   34  A    between atoms: _78  and  _81
REMARK   35  A    between atoms: _84  and  _86
REMARK   36  A    between atoms: _86  and  _87
REMARK   37  A    between atoms: _86  and  _89
REMARK   38  A    between atoms: _89  and  _90
REMARK   39  A    between atoms: _93  and  _95
REMARK   40  A    between atoms: _95  and  _96
REMARK   41  A    between atoms: _95  and  _98
REMARK   42  A    between atoms: _98  and  _99
REMARK   43  A    between atoms: _104  and  _105
REMARK   44  A    between atoms: _107  and  _109
REMARK   45  A    between atoms: _109  and  _110
REMARK   46  A    between atoms: _113  and  _115
REMARK   47  A    between atoms: _115  and  _116
REMARK   48  A    between atoms: _115  and  _118
REMARK   49  A    between atoms: _121  and  _123
REMARK   50  A    between atoms: _123  and  _124
REMARK   51  A    between atoms: _123  and  _126
REMARK   52  A    between atoms: _128  and  _130
REMARK   53  A    between atoms: _130  and  _131
REMARK   54  A    between atoms: _130  and  _133
REMARK   55  A    between atoms: _133  and  _134
REMARK   56  A    between atoms: _134  and  _135
REMARK   57  A    between atoms: _135  and  _136
REMARK   58  A    between atoms: _145  and  _147
REMARK   59  A    between atoms: _147  and  _148
REMARK   60  A    between atoms: _147  and  _150
REMARK   61  A    between atoms: _150  and  _151
REMARK   62  A    between atoms: _151  and  _152
REMARK   63  A    between atoms: _152  and  _153
REMARK   64  A    between atoms: _153  and  _154
REMARK   65  A    between atoms: _158  and  _160
REMARK   66  A    between atoms: _160  and  _161
REMARK   67  A    between atoms: _160  and  _163
REMARK   68  A    between atoms: _163  and  _164
REMARK   69  A    between atoms: _167  and  _169
REMARK   70  A    between atoms: _169  and  _170
REMARK   71  A    between atoms: _169  and  _172
REMARK   72  A    between atoms: _172  and  _173
REMARK   73  A    between atoms: _176  and  _178
REMARK   74  A    between atoms: _178  and  _179
REMARK   75  A    between atoms: _178  and  _181
REMARK   76  A    between atoms: _181  and  _182
REMARK   77  A    between atoms: _185  and  _187
REMARK   78  A    between atoms: _187  and  _188
REMARK   79  A    between atoms: _187  and  _190
REMARK   80  A    between atoms: _190  and  _191
REMARK   81  A    between atoms: _197  and  _199
REMARK   82  A    between atoms: _199  and  _200
REMARK   83  A    between atoms: _199  and  _202
REMARK   84  A    between atoms: _202  and  _203
REMARK   85  A    between atoms: _206  and  _208
REMARK   86  A    between atoms: _208  and  _209
REMARK   87  A    between atoms: _208  and  _211
REMARK   88  A    between atoms: _211  and  _212
REMARK   89  A    between atoms: _215  and  _217
REMARK   90  A    between atoms: _217  and  _218
REMARK   91  A    between atoms: _217  and  _220
REMARK   92  A    between atoms: _223  and  _225
REMARK   93  A    between atoms: _225  and  _226
REMARK   94  A    between atoms: _225  and  _228
REMARK   95  A    between atoms: _228  and  _229
REMARK   96  A    between atoms: _234  and  _235
REMARK   97  A    between atoms: _237  and  _239
REMARK   98  A    between atoms: _239  and  _240
REMARK   99  A    between atoms: _239  and  _242
REMARK  100  A    between atoms: _244  and  _246
REMARK  101  A    between atoms: _246  and  _247
REMARK  102  A    between atoms: _246  and  _249
REMARK  103  A    between atoms: _249  and  _250
REMARK  104  A    between atoms: _255  and  _256
REMARK  105  A    between atoms: _258  and  _260
REMARK  106  A    between atoms: _260  and  _261
REMARK  107  A    between atoms: _263  and  _265
REMARK  108  A    between atoms: _265  and  _266
REMARK  109  A    between atoms: _265  and  _268
REMARK  110  A    between atoms: _271  and  _273
REMARK  111  A    between atoms: _273  and  _274
REMARK  112  A    between atoms: _277  and  _279
REMARK  113  A    between atoms: _279  and  _280
REMARK  114  A    between atoms: _282  and  _284
REMARK  115  A    between atoms: _284  and  _285
REMARK  116  A    between atoms: _284  and  _287
REMARK  117  A    between atoms: _287  and  _288
REMARK  118  A    between atoms: _291  and  _293
REMARK  119  A    between atoms: _293  and  _294
REMARK  120  A    between atoms: _293  and  _296
REMARK  121  A    between atoms: _299  and  _301
REMARK  122  A    between atoms: _301  and  _302
REMARK  123  A    between atoms: _304  and  _306
REMARK  124  A    between atoms: _306  and  _307
REMARK  125  A    between atoms: _306  and  _309
REMARK  126  A    between atoms: _309  and  _310
REMARK  127  A    between atoms: _310  and  _311
REMARK  128  A    between atoms: _314  and  _316
REMARK  129  A    between atoms: _316  and  _317
REMARK  130  A    between atoms: _316  and  _319
REMARK  131  A    between atoms: _322  and  _324
REMARK  132  A    between atoms: _324  and  _325
REMARK  133  A    between atoms: _324  and  _327
REMARK  134  A    between atoms: _327  and  _328
REMARK  135  A    between atoms: _331  and  _333
REMARK  136  A    between atoms: _333  and  _334
REMARK  137  A    between atoms: _333  and  _336
REMARK  138  A    between atoms: _336  and  _337
REMARK  139  A    between atoms: _340  and  _342
REMARK  140  A    between atoms: _342  and  _343
REMARK  141  A    between atoms: _342  and  _345
REMARK  142  A    between atoms: _345  and  _346
REMARK  143  A    between atoms: _349  and  _351
REMARK  144  A    between atoms: _351  and  _352
REMARK  145  A    between atoms: _351  and  _354
REMARK  146  A    between atoms: _357  and  _359
REMARK  147  A    between atoms: _359  and  _360
REMARK  148  A    between atoms: _363  and  _365
REMARK  149  A    between atoms: _365  and  _366
REMARK  150  A    between atoms: _365  and  _368
REMARK  151  A    between atoms: _368  and  _369
REMARK  152  A    between atoms: _369  and  _370
REMARK  153  A    between atoms: _370  and  _371
REMARK  154  A    between atoms: _380  and  _382
REMARK  155  A    between atoms: _382  and  _383
REMARK  156  A    between atoms: _382  and  _385
REMARK  157  A    between atoms: _385  and  _386
REMARK  158  A    between atoms: _386  and  _387
REMARK  159  A    between atoms: _387  and  _388
REMARK  160  A    between atoms: _397  and  _399
REMARK  161  A    between atoms: _399  and  _400
REMARK  162  A    between atoms: _399  and  _402
REMARK  163  A    between atoms: _402  and  _403
REMARK  164  A    between atoms: _406  and  _408
REMARK  165  A    between atoms: _408  and  _409
REMARK  166  A    between atoms: _411  and  _413
REMARK  167  A    between atoms: _413  and  _414
REMARK  168  A    between atoms: _413  and  _416
REMARK  169  A    between atoms: _416  and  _417
REMARK  170  A    between atoms: _417  and  _418
REMARK  171  A    between atoms: _421  and  _423
REMARK  172  A    between atoms: _423  and  _424
REMARK  173  A    between atoms: _423  and  _426
REMARK  174  A    between atoms: _426  and  _427
REMARK  175  A    between atoms: _429  and  _431
REMARK  176  A    between atoms: _431  and  _432
REMARK  177  A    between atoms: _431  and  _434
REMARK  178  A    between atoms: _434  and  _435
REMARK  179  A    between atoms: _438  and  _440
REMARK  180  A    between atoms: _440  and  _441
REMARK  181  A    between atoms: _440  and  _443
REMARK  182  A    between atoms: _443  and  _444
REMARK  183  A    between atoms: _444  and  _445
REMARK  184  A    between atoms: _450  and  _452
REMARK  185  A    between atoms: _452  and  _453
REMARK  186  A    between atoms: _452  and  _455
REMARK  187  A    between atoms: _455  and  _456
REMARK  188  A    between atoms: _459  and  _461
REMARK  189  A    between atoms: _461  and  _462
REMARK  190  A    between atoms: _461  and  _464
REMARK  191  A    between atoms: _464  and  _465
REMARK  192  A    between atoms: _468  and  _470
REMARK  193  A    between atoms: _470  and  _471
REMARK  194  A    between atoms: _470  and  _473
REMARK  195  A    between atoms: _473  and  _474
REMARK  196  A    between atoms: _479  and  _481
REMARK  197  A    between atoms: _481  and  _482
REMARK  198  A    between atoms: _481  and  _484
REMARK  199  A    between atoms: _484  and  _485
REMARK  200  A    between atoms: _488  and  _490
REMARK  201  A    between atoms: _490  and  _491
REMARK  202  A    between atoms: _490  and  _493
REMARK  203  A    between atoms: _493  and  _494
REMARK  204  A    between atoms: _494  and  _495
REMARK  205  A    between atoms: _495  and  _496
REMARK  206  A    between atoms: _505  and  _507
REMARK  207  A    between atoms: _507  and  _508
REMARK  208  A    between atoms: _507  and  _510
REMARK  209  A    between atoms: _510  and  _511
REMARK  210  A    between atoms: _514  and  _516
REMARK  211  A    between atoms: _516  and  _517
REMARK  212  A    between atoms: _516  and  _519
REMARK  213  A    between atoms: _522  and  _524
REMARK  214  A    between atoms: _524  and  _525
REMARK  215  A    between atoms: _524  and  _527
REMARK  216  A    between atoms: _527  and  _528
REMARK  217  A    between atoms: _534  and  _536
REMARK  218  A    between atoms: _536  and  _537
REMARK  219  A    between atoms: _536  and  _539
REMARK  220  A    between atoms: _539  and  _540
REMARK  221  A    between atoms: _543  and  _545
REMARK  222  A    between atoms: _545  and  _546
REMARK  223  A    between atoms: _549  and  _551
REMARK  224  A    between atoms: _551  and  _552
REMARK  225  A    between atoms: _555  and  _557
REMARK  226  A    between atoms: _557  and  _558
REMARK  227  A    between atoms: _557  and  _560
REMARK  228  A    between atoms: _560  and  _561
REMARK  229  A    between atoms: _566  and  _567
REMARK  230  A    between atoms: _569  and  _571
REMARK  231  A    between atoms: _571  and  _572
REMARK  232  A    between atoms: _571  and  _574
REMARK  233  A    between atoms: _574  and  _575
REMARK                            x       y       z     vdW  Elec       q    Type
REMARK                         _______ _______ _______ _____ _____    ______ ____
ROOT
ATOM      1  CA  VAL A   1     -30.726 -14.559   1.165  0.00  0.00    +0.133 C 
ENDROOT
BRANCH   1   2
ATOM      2  CB  VAL A   1     -30.090 -13.110   1.067  0.00  0.00    +0.023 C 
ATOM      3  CG2 VAL A   1     -31.053 -12.146   0.385  0.00  0.00    +0.002 C 
ATOM      4  CG1 VAL A   1     -28.762 -13.124   0.280  0.00  0.00    +0.002 C 
ENDBRANCH   1   2
BRANCH   1   5
ATOM      5  N   VAL A   1     -31.853 -14.616   2.093  0.00  0.00    -0.239 NA
ATOM      6  H   VAL A   1     -32.064 -13.789   2.687  0.00  0.00    +0.142 HD
ENDBRANCH   1   5
BRANCH   1   7
ATOM      7  C   VAL A   1     -29.647 -15.564   1.541  0.00  0.00    +0.224 C 
ATOM      8  O   VAL A   1     -29.122 -16.269   0.673  0.00  0.00    -0.287 OA
ENDBRANCH   1   7
TORSDOF 3
REMARK  Name = ../refined-set-2016/4ea2/4ea2_pocket.pdb
REMARK  233 active torsions:
REMARK  status: ('A' for Active; 'I' for Inactive)
REMARK    1  A    between atoms: _1  and  _3
REMARK    2  A    between atoms: _3  and  _4
REMARK    3  A    between atoms: _3  and  _6
REMARK    4  A    between atoms: _6  and  _7
REMARK    5  A    between atoms: _10  and  _12
REMARK    6  A    between atoms: _12  and  _13
REMARK    7  A    between atoms: _12  and  _15
REMARK    8  A    between atoms: _15  and  _16
REMARK    9  A    between atoms: _16  and  _17
REMARK   10  A    between atoms: _19  and  _21
REMARK   11  A    between atoms: _21  and  _22
REMARK   12  A    between atoms: _21  and  _24
REMARK   13  A    between atoms: _24  and  _25
REMARK   14  A    between atoms: _30  and  _32
REMARK   15  A    between atoms: _32  and  _33
REMARK   16  A    between atoms: _32  and  _35
REMARK   17  A    between atoms: _35  and  _36
REMARK   18  A    between atoms: _38  and  _40
REMARK   19  A    between atoms: _40  and  _41
REMARK   20  A    between atoms: _40  and  _43
REMARK   21  A    between atoms: _43  and  _44
REMARK   22  A    between atoms: _46  and  _48
REMARK   23  A    between atoms: _48  and  _49
REMARK   24  A    between atoms: _48  and  _51
REMARK   25  A    between atoms: _51  and  _52
REMARK   26  A    between atoms: _58  and  _60
REMARK   27  A    between atoms: _60  and  _61
REMARK   28  A    between atoms: _64  and  _66
REMARK   29  A    between atoms: _66  and  _67
REMARK   30  A    between atoms: _66  and  _69
REMARK   31  A    between atoms: _69  and  _70
REMARK   32  A    between atoms: _76  and  _78
REMARK   33  A    between atoms: _78  and  _79
REMARK   34  A    between atoms: _78  and  _81
REMARK   35  A    between atoms: _84  and  _86
REMARK   36  A    between atoms: _86  and  _87
REMARK   37  A    between atoms: _86  and  _89
REMARK   38  A    between atoms: _89  and  _90
REMARK   39  A    between atoms: _93  and  _95
REMARK   40  A    between atoms: _95  and  _96
REMARK   41  A    between atoms: _95  and  _98
REMARK   42  A    between atoms: _98  and  _99
REMARK   43  A    between atoms: _104  and  _105
REMARK   44  A    between atoms: _107  and  _109
REMARK   45  A    between atoms: _109  and  _110
REMARK   46  A    between atoms: _113  and  _115
REMARK   47  A    between atoms: _115  and  _116
REMARK   48  A    between atoms: _115  and  _118
REMARK   49  A    between atoms: _121  and  _123
REMARK   50  A    between atoms: _123  and  _124
REMARK   51  A    between atoms: _123  and  _126
REMARK   52  A    between atoms: _128  and  _130
REMARK   53  A    between atoms: _130  and  _131
REMARK   54  A    between atoms: _130  and  _133
REMARK   55  A    between atoms: _133  and  _134
REMARK   56  A    between atoms: _134  and  _135
REMARK   57  A    between atoms: _135  and  _136
REMARK   58  A    between atoms: _145  and  _147
REMARK   59  A    between atoms: _147  and  _148
REMARK   60  A    between atoms: _147  and  _150
REMARK   61  A    between atoms: _150  and  _151
REMARK   62  A    between atoms: _151  and  _152
REMARK   63  A    between atoms: _152  and  _153
REMARK   64  A    between atoms: _153  and  _154
REMARK   65  A    between atoms: _158  and  _160
REMARK   66  A    between atoms: _160  and  _161
REMARK   67  A    between atoms: _160  and  _163
REMARK   68  A    between atoms: _163  and  _164
REMARK   69  A    between atoms: _167  and  _169
REMARK   70  A    between atoms: _169  and  _170
REMARK   71  A    between atoms: _169  and  _172
REMARK   72  A    between atoms: _172  and  _173
REMARK   73  A    between atoms: _176  and  _178
REMARK   74  A    between atoms: _178  and  _179
REMARK   75  A    between atoms: _178  and  _181
REMARK   76  A    between atoms: _181  and  _182
REMARK   77  A    between atoms: _185  and  _187
REMARK   78  A    between atoms: _187  and  _188
REMARK   79  A    between atoms: _187  and  _190
REMARK   80  A    between atoms: _190  and  _191
REMARK   81  A    between atoms: _197  and  _199
REMARK   82  A    between atoms: _199  and  _200
REMARK   83  A    between atoms: _199  and  _202
REMARK   84  A    between atoms: _202  and  _203
REMARK   85  A    between atoms: _206  and  _208
REMARK   86  A    between atoms: _208  and  _209
REMARK   87  A    between atoms: _208  and  _211
REMARK   88  A    between atoms: _211  and  _212
REMARK   89  A    between atoms: _215  and  _217
REMARK   90  A    between atoms: _217  and  _218
REMARK   91  A    between atoms: _217  and  _220
REMARK   92  A    between atoms: _223  and  _225
REMARK   93  A    between atoms: _225  and  _226
REMARK   94  A    between atoms: _225  and  _228
REMARK   95  A    between atoms: _228  and  _229
REMARK   96  A    between atoms: _234  and  _235
REMARK   97  A    between atoms: _237  and  _239
REMARK   98  A    between atoms: _239  and  _240
REMARK   99  A    between atoms: _239  and  _242
REMARK  100  A    between atoms: _244  and  _246
REMARK  101  A    between atoms: _246  and  _247
REMARK  102  A    between atoms: _246  and  _249
REMARK  103  A    between atoms: _249  and  _250
REMARK  104  A    between atoms: _255  and  _256
REMARK  105  A    between atoms: _258  and  _260
REMARK  106  A    between atoms: _260  and  _261
REMARK  107  A    between atoms: _263  and  _265
REMARK  108  A    between atoms: _265  and  _266
REMARK  109  A    between atoms: _265  and  _268
REMARK  110  A    between atoms: _271  and  _273
REMARK  111  A    between atoms: _273  and  _274
REMARK  112  A    between atoms: _277  and  _279
REMARK  113  A    between atoms: _279  and  _280
REMARK  114  A    between atoms: _282  and  _284
REMARK  115  A    between atoms: _284  and  _285
REMARK  116  A    between atoms: _284  and  _287
REMARK  117  A    between atoms: _287  and  _288
REMARK  118  A    between atoms: _291  and  _293
REMARK  119  A    between atoms: _293  and  _294
REMARK  120  A    between atoms: _293  and  _296
REMARK  121  A    between atoms: _299  and  _301
REMARK  122  A    between atoms: _301  and  _302
REMARK  123  A    between atoms: _304  and  _306
REMARK  124  A    between atoms: _306  and  _307
REMARK  125  A    between atoms: _306  and  _309
REMARK  126  A    between atoms: _309  and  _310
REMARK  127  A    between atoms: _310  and  _311
REMARK  128  A    between atoms: _314  and  _316
REMARK  129  A    between atoms: _316  and  _317
REMARK  130  A    between atoms: _316  and  _319
REMARK  131  A    between atoms: _322  and  _324
REMARK  132  A    between atoms: _324  and  _325
REMARK  133  A    between atoms: _324  and  _327
REMARK  134  A    between atoms: _327  and  _328
REMARK  135  A    between atoms: _331  and  _333
REMARK  136  A    between atoms: _333  and  _334
REMARK  137  A    between atoms: _333  and  _336
REMARK  138  A    between atoms: _336  and  _337
REMARK  139  A    between atoms: _340  and  _342
REMARK  140  A    between atoms: _342  and  _343
REMARK  141  A    between atoms: _342  and  _345
REMARK  142  A    between atoms: _345  and  _346
REMARK  143  A    between atoms: _349  and  _351
REMARK  144  A    between atoms: _351  and  _352
REMARK  145  A    between atoms: _351  and  _354
REMARK  146  A    between atoms: _357  and  _359
REMARK  147  A    between atoms: _359  and  _360
REMARK  148  A    between atoms: _363  and  _365
REMARK  149  A    between atoms: _365  and  _366
REMARK  150  A    between atoms: _365  and  _368
REMARK  151  A    between atoms: _368  and  _369
REMARK  152  A    between atoms: _369  and  _370
REMARK  153  A    between atoms: _370  and  _371
REMARK  154  A    between atoms: _380  and  _382
REMARK  155  A    between atoms: _382  and  _383
REMARK  156  A    between atoms: _382  and  _385
REMARK  157  A    between atoms: _385  and  _386
REMARK  158  A    between atoms: _386  and  _387
REMARK  159  A    between atoms: _387  and  _388
REMARK  160  A    between atoms: _397  and  _399
REMARK  161  A    between atoms: _399  and  _400
REMARK  162  A    between atoms: _399  and  _402
REMARK  163  A    between atoms: _402  and  _403
REMARK  164  A    between atoms: _406  and  _408
REMARK  165  A    between atoms: _408  and  _409
REMARK  166  A    between atoms: _411  and  _413
REMARK  167  A    between atoms: _413  and  _414
REMARK  168  A    between atoms: _413  and  _416
REMARK  169  A    between atoms: _416  and  _417
REMARK  170  A    between atoms: _417  and  _418
REMARK  171  A    between atoms: _421  and  _423
REMARK  172  A    between atoms: _423  and  _424
REMARK  173  A    between atoms: _423  and  _426
REMARK  174  A    between atoms: _426  and  _427
REMARK  175  A    between atoms: _429  and  _431
REMARK  176  A    between atoms: _431  and  _432
REMARK  177  A    between atoms: _431  and  _434
REMARK  178  A    between atoms: _434  and  _435
REMARK  179  A    between atoms: _438  and  _440
REMARK  180  A    between atoms: _440  and  _441
REMARK  181  A    between atoms: _440  and  _443
REMARK  182  A    between atoms: _443  and  _444
REMARK  183  A    between atoms: _444  and  _445
REMARK  184  A    between atoms: _450  and  _452
REMARK  185  A    between atoms: _452  and  _453
REMARK  186  A    between atoms: _452  and  _455
REMARK  187  A    between atoms: _455  and  _456
REMARK  188  A    between atoms: _459  and  _461
REMARK  189  A    between atoms: _461  and  _462
REMARK  190  A    between atoms: _461  and  _464
REMARK  191  A    between atoms: _464  and  _465
REMARK  192  A    between atoms: _468  and  _470
REMARK  193  A    between atoms: _470  and  _471
REMARK  194  A    between atoms: _470  and  _473
REMARK  195  A    between atoms: _473  and  _474
REMARK  196  A    between atoms: _479  and  _481
REMARK  197  A    between atoms: _481  and  _482
REMARK  198  A    between atoms: _481  and  _484
REMARK  199  A    between atoms: _484  and  _485
REMARK  200  A    between atoms: _488  and  _490
REMARK  201  A    between atoms: _490  and  _491
REMARK  202  A    between atoms: _490  and  _493
REMARK  203  A    between atoms: _493  and  _494
REMARK  204  A    between atoms: _494  and  _495
REMARK  205  A    between atoms: _495  and  _496
REMARK  206  A    between atoms: _505  and  _507
REMARK  207  A    between atoms: _507  and  _508
REMARK  208  A    between atoms: _507  and  _510
REMARK  209  A    between atoms: _510  and  _511
REMARK  210  A    between atoms: _514  and  _516
REMARK  211  A    between atoms: _516  and  _517
REMARK  212  A    between atoms: _516  and  _519
REMARK  213  A    between atoms: _522  and  _524
REMARK  214  A    between atoms: _524  and  _525
REMARK  215  A    between atoms: _524  and  _527
REMARK  216  A    between atoms: _527  and  _528
REMARK  217  A    between atoms: _534  and  _536
REMARK  218  A    between atoms: _536  and  _537
REMARK  219  A    between atoms: _536  and  _539
REMARK  220  A    between atoms: _539  and  _540
REMARK  221  A    between atoms: _543  and  _545
REMARK  222  A    between atoms: _545  and  _546
REMARK  223  A    between atoms: _549  and  _551
REMARK  224  A    between atoms: _551  and  _552
REMARK  225  A    between atoms: _555  and  _557
REMARK  226  A    between atoms: _557  and  _558
REMARK  227  A    between atoms: _557  and  _560
REMARK  228  A    between atoms: _560  and  _561
REMARK  229  A    between atoms: _566  and  _567
REMARK  230  A    between atoms: _569  and  _571
REMARK  231  A    between atoms: _571  and  _572
REMARK  232  A    between atoms: _571  and  _574
REMARK  233  A    between atoms: _574  and  _575
REMARK                            x       y       z     vdW  Elec       q    Type
REMARK                         _______ _______ _______ _____ _____    ______ ____
ROOT
ATOM      1  CA  ARG A   6     -23.179 -22.665  -3.340  0.00  0.00    +0.149 C 
ENDROOT
BRANCH   1   3
ATOM      2  C   CYS A   5     -25.220 -22.689  -4.718  0.00  0.00    +0.242 C 
ATOM      3  N   ARG A   6     -24.586 -22.338  -3.594  0.00  0.00    -0.297 N 
ATOM      4  H   ARG A   6     -25.113 -21.811  -2.869  0.00  0.00    +0.150 HD
ATOM      5  O   CYS A   5     -24.660 -23.254  -5.647  0.00  0.00    -0.273 OA
BRANCH   2   6
ATOM      6  CA  CYS A   5     -26.734 -22.329  -4.818  0.00  0.00    +0.160 C 
BRANCH   6   8
ATOM      7  C   VAL A   4     -27.443 -23.704  -3.003  0.00  0.00    +0.241 C 
ATOM      8  N   CYS A   5     -27.368 -22.499  -3.529  0.00  0.00    -0.296 N 
ATOM      9  H   CYS A   5     -27.760 -21.679  -3.023  0.00  0.00    +0.150 HD
ATOM     10  O   VAL A   4     -27.039 -24.703  -3.592  0.00  0.00    -0.273 OA
BRANCH   7  11
ATOM     11  CA  VAL A   4     -28.253 -23.831  -1.705  0.00  0.00    +0.149 C 
BRANCH  11  13
ATOM     12  C   ALA A   3     -26.499 -22.744  -0.419  0.00  0.00    +0.241 C 
ATOM     13  N   VAL A   4     -27.782 -22.866  -0.733  0.00  0.00    -0.297 N 
ATOM     14  H   VAL A   4     -28.474 -22.247  -0.265  0.00  0.00    +0.150 HD
ATOM     15  O   ALA A   3     -25.630 -23.495  -0.850  0.00  0.00    -0.273 OA
BRANCH  12  16
ATOM     16  CA  ALA A   3     -26.133 -21.597   0.499  0.00  0.00    +0.149 C 
ATOM     17  CB  ALA A   3     -26.573 -21.908   1.898  0.00  0.00    +0.031 C 
BRANCH  16  19
ATOM     18  C   TYR A   2     -26.410 -19.781  -1.074  0.00  0.00    +0.241 C 
ATOM     19  N   ALA A   3     -26.771 -20.371   0.048  0.00  0.00    -0.297 N 
ATOM     20  H   ALA A   3     -27.529 -19.950   0.623  0.00  0.00    +0.150 HD
ATOM     21  O   TYR A   2     -25.626 -20.297  -1.869  0.00  0.00    -0.273 OA
BRANCH  18  22
ATOM     22  CA  TYR A   2     -27.053 -18.431  -1.379  0.00  0.00    +0.153 C 
BRANCH  22  24
ATOM     23  C   ILE A   1     -29.317 -19.238  -1.619  0.00  0.00    +0.238 C 
ATOM     24  N   TYR A   2     -28.466 -18.412  -1.047  0.00  0.00    -0.297 N 
ATOM     25  H   TYR A   2     -28.814 -17.731  -0.342  0.00  0.00    +0.150 HD
ATOM     26  O   ILE A   1     -28.966 -20.075  -2.432  0.00  0.00    -0.274 OA
BRANCH  23  27
ATOM     27  CA  ILE A   1     -30.774 -19.163  -1.154  0.00  0.00    +0.145 C 
BRANCH  27  28
ATOM     28  N   ILE A   1     -30.847 -19.011   0.299  0.00  0.00    -0.238 NA
ATOM     29  H   ILE A   1     -31.243 -18.142   0.710  0.00  0.00    +0.142 HD
ENDBRANCH  27  28
BRANCH  27  30
ATOM     30  CB  ILE A   1     -31.574 -18.055  -1.846  0.00  0.00    +0.025 C 
ATOM     31  CG2 ILE A   1     -31.206 -17.911  -3.352  0.00  0.00    +0.002 C 
BRANCH  30  32
ATOM     32  CG1 ILE A   1     -33.070 -18.304  -1.591  0.00  0.00    +0.002 C 
ATOM     33  CD1 ILE A   1     -33.957 -17.029  -1.692  0.00  0.00    +0.000 C 
ENDBRANCH  30  32
ENDBRANCH  27  30
ENDBRANCH  23  27
ENDBRANCH  22  24
BRANCH  22  34
ATOM     34  CB  TYR A   2     -26.262 -17.326  -0.654  0.00  0.00    +0.055 C 
BRANCH  34  35
ATOM     35  CG  TYR A   2     -24.894 -17.077  -1.280  0.00  0.00    -0.020 A 
ATOM     36  CD2 TYR A   2     -23.814 -17.909  -1.007  0.00  0.00    -0.001 A 
ATOM     37  CE2 TYR A   2     -22.559 -17.692  -1.590  0.00  0.00    +0.036 A 
ATOM     38  CZ  TYR A   2     -22.398 -16.624  -2.477  0.00  0.00    +0.134 A 
ATOM     39  CE1 TYR A   2     -23.453 -15.757  -2.725  0.00  0.00    +0.036 A 
ATOM     40  CD1 TYR A   2     -24.696 -16.007  -2.153  0.00  0.00    -0.001 A 
BRANCH  38  41
ATOM     41  OH  TYR A   2     -21.178 -16.383  -3.096  0.00  0.00    -0.506 OA
ATOM     42  HH  TYR A   2     -20.529 -17.079  -2.825  0.00  0.00    +0.292 HD
ENDBRANCH  38  41
ENDBRANCH  34  35
ENDBRANCH  22  34
ENDBRANCH  18  22
ENDBRANCH  16  19
ENDBRANCH  12  16
ENDBRANCH  11  13
BRANCH  11  43
ATOM     43  CB  VAL A   4     -29.748 -23.606  -2.023  0.00  0.00    +0.027 C 
ATOM     44  CG2 VAL A   4     -30.627 -23.992  -0.826  0.00  0.00    +0.002 C 
ATOM     45  CG1 VAL A   4     -30.176 -24.383  -3.241  0.00  0.00    +0.002 C 
ENDBRANCH  11  43
ENDBRANCH   7  11
ENDBRANCH   6   8
BRANCH   6  46
ATOM     46  CB  CYS A   5     -26.898 -20.894  -5.264  0.00  0.00    +0.098 C 
ATOM     47  SG  CYS A   5     -28.604 -20.532  -5.775  0.00  0.00    -0.080 S 
ENDBRANCH   6  46
ENDBRANCH   2   6
ENDBRANCH   1   3
BRANCH   1  48
ATOM     48  C   ARG A   6     -22.944 -24.171  -3.314  0.00  0.00    +0.241 C 
ATOM     49  N   LYS A   7     -23.873 -24.883  -2.682  0.00  0.00    -0.297 N 
ATOM     50  H   LYS A   7     -24.671 -24.383  -2.241  0.00  0.00    +0.150 HD
ATOM     51  O   ARG A   6     -21.943 -24.675  -3.864  0.00  0.00    -0.273 OA
BRANCH  49  52
ATOM     52  CA  LYS A   7     -23.817 -26.326  -2.584  0.00  0.00    +0.149 C 
BRANCH  52  53
ATOM     53  C   LYS A   7     -23.995 -26.979  -3.946  0.00  0.00    +0.241 C 
ATOM     54  O   LYS A   7     -23.434 -28.046  -4.202  0.00  0.00    -0.273 OA
ATOM     55  N   ILE A   8     -24.901 -26.431  -4.755  0.00  0.00    -0.297 N 
ATOM     56  H   ILE A   8     -25.475 -25.633  -4.415  0.00  0.00    +0.150 HD
BRANCH  55  57
ATOM     57  CA  ILE A   8     -25.103 -26.936  -6.121  0.00  0.00    +0.149 C 
BRANCH  57  58
ATOM     58  C   ILE A   8     -23.798 -26.663  -6.931  0.00  0.00    +0.241 C 
ATOM     59  N   ASP A   9     -23.227 -25.481  -6.757  0.00  0.00    -0.297 N 
ATOM     60  H   ASP A   9     -23.664 -24.795  -6.109  0.00  0.00    +0.150 HD
ATOM     61  O   ILE A   8     -23.299 -27.526  -7.652  0.00  0.00    -0.273 OA
BRANCH  59  62
ATOM     62  CA  ASP A   9     -22.000 -25.122  -7.454  0.00  0.00    +0.160 C 
BRANCH  62  63
ATOM     63  C   ASP A   9     -20.872 -26.148  -7.151  0.00  0.00    +0.241 C 
ATOM     64  N   ASP A  10     -20.881 -26.715  -5.943  0.00  0.00    -0.298 N 
ATOM     65  H   ASP A  10     -21.722 -26.610  -5.341  0.00  0.00    +0.150 HD
ATOM     66  O   ASP A   9     -20.106 -26.520  -8.056  0.00  0.00    -0.273 OA
BRANCH  64  67
ATOM     67  CA  ASP A  10     -19.730 -27.487  -5.439  0.00  0.00    +0.148 C 
BRANCH  67  68
ATOM     68  C   ASP A  10     -19.916 -29.002  -5.586  0.00  0.00    +0.227 C 
ATOM     69  O   ASP A  10     -18.976 -29.783  -5.379  0.00  0.00    -0.286 OA
ENDBRANCH  67  68
BRANCH  67  70
ATOM     70  CB  ASP A  10     -19.450 -27.147  -3.975  0.00  0.00    +0.142 C 
BRANCH  70  71
ATOM     71  CG  ASP A  10     -18.730 -25.830  -3.822  0.00  0.00    +0.367 C 
ATOM     72  OD2 ASP A  10     -18.631 -25.308  -2.679  0.00  0.00    -0.246 OA
ATOM     73  OD1 ASP A  10     -18.285 -25.301  -4.868  0.00  0.00    -0.246 OA
ENDBRANCH  70  71
ENDBRANCH  67  70
ENDBRANCH  64  67
ENDBRANCH  62  63
BRANCH  62  74
ATOM     74  CB  ASP A   9     -21.603 -23.685  -7.093  0.00  0.00    +0.143 C 
BRANCH  74  75
ATOM     75  CG  ASP A   9     -20.377 -23.181  -7.868  0.00  0.00    +0.367 C 
ATOM     76  OD2 ASP A   9     -19.608 -22.372  -7.282  0.00  0.00    -0.246 OA
ATOM     77  OD1 ASP A   9     -20.237 -23.499  -9.080  0.00  0.00    -0.246 OA
ENDBRANCH  74  75
ENDBRANCH  62  74
ENDBRANCH  59  62
ENDBRANCH  57  58
BRANCH  57  78
ATOM     78  CB  ILE A   8     -26.327 -26.244  -6.820  0.00  0.00    +0.027 C 
ATOM     79  CG2 ILE A   8     -26.281 -26.418  -8.317  0.00  0.00    +0.002 C 
BRANCH  78  80
ATOM     80  CG1 ILE A   8     -27.673 -26.788  -6.312  0.00  0.00    +0.002 C 
ATOM     81  CD1 ILE A   8     -28.824 -25.781  -6.489  0.00  0.00    +0.000 C 
ENDBRANCH  78  80
ENDBRANCH  57  78
ENDBRANCH  55  57
ENDBRANCH  52  53
BRANCH  52  82
ATOM     82  CB  LYS A   7     -24.886 -26.862  -1.602  0.00  0.00    +0.029 C 
BRANCH  82  83
ATOM     83  CG  LYS A   7     -24.416 -26.869  -0.144  0.00  0.00    +0.000 C 
BRANCH  83  84
ATOM     84  CD  LYS A   7     -23.529 -28.070   0.175  0.00  0.00    -0.024 C 
BRANCH  84  85
ATOM     85  CE  LYS A   7     -23.268 -28.219   1.676  0.00  0.00    -0.086 C 
BRANCH  85  86
ATOM     86  NZ  LYS A   7     -23.179 -29.680   2.084  0.00  0.00    +0.380 N 
ATOM     87  HZ1 LYS A   7     -23.002 -29.743   3.107  0.00  0.00    -0.089 HD
ATOM     88  HZ2 LYS A   7     -24.074 -30.157   1.856  0.00  0.00    -0.089 HD
ATOM     89  HZ3 LYS A   7     -22.400 -30.136   1.567  0.00  0.00    -0.089 HD
ENDBRANCH  85  86
ENDBRANCH  84  85
ENDBRANCH  83  84
ENDBRANCH  82  83
ENDBRANCH  52  82
ENDBRANCH  49  52
ENDBRANCH   1  48
BRANCH   1  90
ATOM     90  CB  ARG A   6     -22.731 -22.040  -2.013  0.00  0.00    +0.033 C 
BRANCH  90  91
ATOM     91  CG  ARG A   6     -21.339 -21.469  -2.032  0.00  0.00    +0.045 C 
BRANCH  91  92
ATOM     92  CD  ARG A   6     -20.481 -22.188  -3.056  0.00  0.00    +0.174 C 
BRANCH  92  93
ATOM     93  NE  ARG A   6     -19.073 -22.246  -2.679  0.00  0.00    -0.265 N 
ATOM     94  HE  ARG A   6     -18.808 -21.908  -1.732  0.00  0.00    +0.259 HD
ATOM     95  CZ  ARG A   6     -18.104 -22.706  -3.473  0.00  0.00    +0.342 C 
ATOM     96  NH2 ARG A   6     -16.836 -22.707  -3.057  0.00  0.00    -0.292 N 
ATOM     97 HH21 ARG A   6     -16.599 -22.348  -2.110  0.00  0.00    +0.255 HD
ATOM     98 HH22 ARG A   6     -16.085 -23.067  -3.680  0.00  0.00    +0.255 HD
ATOM     99  NH1 ARG A   6     -18.394 -23.161  -4.690  0.00  0.00    -0.292 N 
ATOM    100 HH11 ARG A   6     -19.379 -23.159  -5.025  0.00  0.00    +0.255 HD
ATOM    101 HH12 ARG A   6     -17.636 -23.519  -5.306  0.00  0.00    +0.255 HD
ENDBRANCH  92  93
ENDBRANCH  91  92
ENDBRANCH  90  91
ENDBRANCH   1  90
TORSDOF 42
REMARK  Name = ../refined-set-2016/4ea2/4ea2_pocket.pdb
REMARK  233 active torsions:
REMARK  status: ('A' for Active; 'I' for Inactive)
REMARK    1  A    between atoms: _1  and  _3
REMARK    2  A    between atoms: _3  and  _4
REMARK    3  A    between atoms: _3  and  _6
REMARK    4  A    between atoms: _6  and  _7
REMARK    5  A    between atoms: _10  and  _12
REMARK    6  A    between atoms: _12  and  _13
REMARK    7  A    between atoms: _12  and  _15
REMARK    8  A    between atoms: _15  and  _16
REMARK    9  A    between atoms: _16  and  _17
REMARK   10  A    between atoms: _19  and  _21
REMARK   11  A    between atoms: _21  and  _22
REMARK   12  A    between atoms: _21  and  _24
REMARK   13  A    between atoms: _24  and  _25
REMARK   14  A    between atoms: _30  and  _32
REMARK   15  A    between atoms: _32  and  _33
REMARK   16  A    between atoms: _32  and  _35
REMARK   17  A    between atoms: _35  and  _36
REMARK   18  A    between atoms: _38  and  _40
REMARK   19  A    between atoms: _40  and  _41
REMARK   20  A    between atoms: _40  and  _43
REMARK   21  A    between atoms: _43  and  _44
REMARK   22  A    between atoms: _46  and  _48
REMARK   23  A    between atoms: _48  and  _49
REMARK   24  A    between atoms: _48  and  _51
REMARK   25  A    between atoms: _51  and  _52
REMARK   26  A    between atoms: _58  and  _60
REMARK   27  A    between atoms: _60  and  _61
REMARK   28  A    between atoms: _64  and  _66
REMARK   29  A    between atoms: _66  and  _67
REMARK   30  A    between atoms: _66  and  _69
REMARK   31  A    between atoms: _69  and  _70
REMARK   32  A    between atoms: _76  and  _78
REMARK   33  A    between atoms: _78  and  _79
REMARK   34  A    between atoms: _78  and  _81
REMARK   35  A    between atoms: _84  and  _86
REMARK   36  A    between atoms: _86  and  _87
REMARK   37  A    between atoms: _86  and  _89
REMARK   38  A    between atoms: _89  and  _90
REMARK   39  A    between atoms: _93  and  _95
REMARK   40  A    between atoms: _95  and  _96
REMARK   41  A    between atoms: _95  and  _98
REMARK   42  A    between atoms: _98  and  _99
REMARK   43  A    between atoms: _104  and  _105
REMARK   44  A    between atoms: _107  and  _109
REMARK   45  A    between atoms: _109  and  _110
REMARK   46  A    between atoms: _113  and  _115
REMARK   47  A    between atoms: _115  and  _116
REMARK   48  A    between atoms: _115  and  _118
REMARK   49  A    between atoms: _121  and  _123
REMARK   50  A    between atoms: _123  and  _124
REMARK   51  A    between atoms: _123  and  _126
REMARK   52  A    between atoms: _128  and  _130
REMARK   53  A    between atoms: _130  and  _131
REMARK   54  A    between atoms: _130  and  _133
REMARK   55  A    between atoms: _133  and  _134
REMARK   56  A    between atoms: _134  and  _135
REMARK   57  A    between atoms: _135  and  _136
REMARK   58  A    between atoms: _145  and  _147
REMARK   59  A    between atoms: _147  and  _148
REMARK   60  A    between atoms: _147  and  _150
REMARK   61  A    between atoms: _150  and  _151
REMARK   62  A    between atoms: _151  and  _152
REMARK   63  A    between atoms: _152  and  _153
REMARK   64  A    between atoms: _153  and  _154
REMARK   65  A    between atoms: _158  and  _160
REMARK   66  A    between atoms: _160  and  _161
REMARK   67  A    between atoms: _160  and  _163
REMARK   68  A    between atoms: _163  and  _164
REMARK   69  A    between atoms: _167  and  _169
REMARK   70  A    between atoms: _169  and  _170
REMARK   71  A    between atoms: _169  and  _172
REMARK   72  A    between atoms: _172  and  _173
REMARK   73  A    between atoms: _176  and  _178
REMARK   74  A    between atoms: _178  and  _179
REMARK   75  A    between atoms: _178  and  _181
REMARK   76  A    between atoms: _181  and  _182
REMARK   77  A    between atoms: _185  and  _187
REMARK   78  A    between atoms: _187  and  _188
REMARK   79  A    between atoms: _187  and  _190
REMARK   80  A    between atoms: _190  and  _191
REMARK   81  A    between atoms: _197  and  _199
REMARK   82  A    between atoms: _199  and  _200
REMARK   83  A    between atoms: _199  and  _202
REMARK   84  A    between atoms: _202  and  _203
REMARK   85  A    between atoms: _206  and  _208
REMARK   86  A    between atoms: _208  and  _209
REMARK   87  A    between atoms: _208  and  _211
REMARK   88  A    between atoms: _211  and  _212
REMARK   89  A    between atoms: _215  and  _217
REMARK   90  A    between atoms: _217  and  _218
REMARK   91  A    between atoms: _217  and  _220
REMARK   92  A    between atoms: _223  and  _225
REMARK   93  A    between atoms: _225  and  _226
REMARK   94  A    between atoms: _225  and  _228
REMARK   95  A    between atoms: _228  and  _229
REMARK   96  A    between atoms: _234  and  _235
REMARK   97  A    between atoms: _237  and  _239
REMARK   98  A    between atoms: _239  and  _240
REMARK   99  A    between atoms: _239  and  _242
REMARK  100  A    between atoms: _244  and  _246
REMARK  101  A    between atoms: _246  and  _247
REMARK  102  A    between atoms: _246  and  _249
REMARK  103  A    between atoms: _249  and  _250
REMARK  104  A    between atoms: _255  and  _256
REMARK  105  A    between atoms: _258  and  _260
REMARK  106  A    between atoms: _260  and  _261
REMARK  107  A    between atoms: _263  and  _265
REMARK  108  A    between atoms: _265  and  _266
REMARK  109  A    between atoms: _265  and  _268
REMARK  110  A    between atoms: _271  and  _273
REMARK  111  A    between atoms: _273  and  _274
REMARK  112  A    between atoms: _277  and  _279
REMARK  113  A    between atoms: _279  and  _280
REMARK  114  A    between atoms: _282  and  _284
REMARK  115  A    between atoms: _284  and  _285
REMARK  116  A    between atoms: _284  and  _287
REMARK  117  A    between atoms: _287  and  _288
REMARK  118  A    between atoms: _291  and  _293
REMARK  119  A    between atoms: _293  and  _294
REMARK  120  A    between atoms: _293  and  _296
REMARK  121  A    between atoms: _299  and  _301
REMARK  122  A    between atoms: _301  and  _302
REMARK  123  A    between atoms: _304  and  _306
REMARK  124  A    between atoms: _306  and  _307
REMARK  125  A    between atoms: _306  and  _309
REMARK  126  A    between atoms: _309  and  _310
REMARK  127  A    between atoms: _310  and  _311
REMARK  128  A    between atoms: _314  and  _316
REMARK  129  A    between atoms: _316  and  _317
REMARK  130  A    between atoms: _316  and  _319
REMARK  131  A    between atoms: _322  and  _324
REMARK  132  A    between atoms: _324  and  _325
REMARK  133  A    between atoms: _324  and  _327
REMARK  134  A    between atoms: _327  and  _328
REMARK  135  A    between atoms: _331  and  _333
REMARK  136  A    between atoms: _333  and  _334
REMARK  137  A    between atoms: _333  and  _336
REMARK  138  A    between atoms: _336  and  _337
REMARK  139  A    between atoms: _340  and  _342
REMARK  140  A    between atoms: _342  and  _343
REMARK  141  A    between atoms: _342  and  _345
REMARK  142  A    between atoms: _345  and  _346
REMARK  143  A    between atoms: _349  and  _351
REMARK  144  A    between atoms: _351  and  _352
REMARK  145  A    between atoms: _351  and  _354
REMARK  146  A    between atoms: _357  and  _359
REMARK  147  A    between atoms: _359  and  _360
REMARK  148  A    between atoms: _363  and  _365
REMARK  149  A    between atoms: _365  and  _366
REMARK  150  A    between atoms: _365  and  _368
REMARK  151  A    between atoms: _368  and  _369
REMARK  152  A    between atoms: _369  and  _370
REMARK  153  A    between atoms: _370  and  _371
REMARK  154  A    between atoms: _380  and  _382
REMARK  155  A    between atoms: _382  and  _383
REMARK  156  A    between atoms: _382  and  _385
REMARK  157  A    between atoms: _385  and  _386
REMARK  158  A    between atoms: _386  and  _387
REMARK  159  A    between atoms: _387  and  _388
REMARK  160  A    between atoms: _397  and  _399
REMARK  161  A    between atoms: _399  and  _400
REMARK  162  A    between atoms: _399  and  _402
REMARK  163  A    between atoms: _402  and  _403
REMARK  164  A    between atoms: _406  and  _408
REMARK  165  A    between atoms: _408  and  _409
REMARK  166  A    between atoms: _411  and  _413
REMARK  167  A    between atoms: _413  and  _414
REMARK  168  A    between atoms: _413  and  _416
REMARK  169  A    between atoms: _416  and  _417
REMARK  170  A    between atoms: _417  and  _418
REMARK  171  A    between atoms: _421  and  _423
REMARK  172  A    between atoms: _423  and  _424
REMARK  173  A    between atoms: _423  and  _426
REMARK  174  A    between atoms: _426  and  _427
REMARK  175  A    between atoms: _429  and  _431
REMARK  176  A    between atoms: _431  and  _432
REMARK  177  A    between atoms: _431  and  _434
REMARK  178  A    between atoms: _434  and  _435
REMARK  179  A    between atoms: _438  and  _440
REMARK  180  A    between atoms: _440  and  _441
REMARK  181  A    between atoms: _440  and  _443
REMARK  182  A    between atoms: _443  and  _444
REMARK  183  A    between atoms: _444  and  _445
REMARK  184  A    between atoms: _450  and  _452
REMARK  185  A    between atoms: _452  and  _453
REMARK  186  A    between atoms: _452  and  _455
REMARK  187  A    between atoms: _455  and  _456
REMARK  188  A    between atoms: _459  and  _461
REMARK  189  A    between atoms: _461  and  _462
REMARK  190  A    between atoms: _461  and  _464
REMARK  191  A    between atoms: _464  and  _465
REMARK  192  A    between atoms: _468  and  _470
REMARK  193  A    between atoms: _470  and  _471
REMARK  194  A    between atoms: _470  and  _473
REMARK  195  A    between atoms: _473  and  _474
REMARK  196  A    between atoms: _479  and  _481
REMARK  197  A    between atoms: _481  and  _482
REMARK  198  A    between atoms: _481  and  _484
REMARK  199  A    between atoms: _484  and  _485
REMARK  200  A    between atoms: _488  and  _490
REMARK  201  A    between atoms: _490  and  _491
REMARK  202  A    between atoms: _490  and  _493
REMARK  203  A    between atoms: _493  and  _494
REMARK  204  A    between atoms: _494  and  _495
REMARK  205  A    between atoms: _495  and  _496
REMARK  206  A    between atoms: _505  and  _507
REMARK  207  A    between atoms: _507  and  _508
REMARK  208  A    between atoms: _507  and  _510
REMARK  209  A    between atoms: _510  and  _511
REMARK  210  A    between atoms: _514  and  _516
REMARK  211  A    between atoms: _516  and  _517
REMARK  212  A    between atoms: _516  and  _519
REMARK  213  A    between atoms: _522  and  _524
REMARK  214  A    between atoms: _524  and  _525
REMARK  215  A    between atoms: _524  and  _527
REMARK  216  A    between atoms: _527  and  _528
REMARK  217  A    between atoms: _534  and  _536
REMARK  218  A    between atoms: _536  and  _537
REMARK  219  A    between atoms: _536  and  _539
REMARK  220  A    between atoms: _539  and  _540
REMARK  221  A    between atoms: _543  and  _545
REMARK  222  A    between atoms: _545  and  _546
REMARK  223  A    between atoms: _549  and  _551
REMARK  224  A    between atoms: _551  and  _552
REMARK  225  A    between atoms: _555  and  _557
REMARK  226  A    between atoms: _557  and  _558
REMARK  227  A    between atoms: _557  and  _560
REMARK  228  A    between atoms: _560  and  _561
REMARK  229  A    between atoms: _566  and  _567
REMARK  230  A    between atoms: _569  and  _571
REMARK  231  A    between atoms: _571  and  _572
REMARK  232  A    between atoms: _571  and  _574
REMARK  233  A    between atoms: _574  and  _575
REMARK                            x       y       z     vdW  Elec       q    Type
REMARK                         _______ _______ _______ _____ _____    ______ ____
ROOT
ATOM      1  CB  PHE A   1     -33.271 -24.120  -8.013  0.00  0.00    +0.051 C 
ENDROOT
BRANCH   1   2
ATOM      2  CG  PHE A   1     -33.252 -23.186  -6.830  0.00  0.00    -0.020 A 
ATOM      3  CD2 PHE A   1     -34.423 -22.936  -6.117  0.00  0.00    -0.004 A 
ATOM      4  CE2 PHE A   1     -34.380 -22.197  -4.961  0.00  0.00    -0.000 A 
ATOM      5  CZ  PHE A   1     -33.182 -21.680  -4.509  0.00  0.00    -0.000 A 
ATOM      6  CE1 PHE A   1     -32.018 -21.885  -5.224  0.00  0.00    -0.000 A 
ATOM      7  CD1 PHE A   1     -32.051 -22.675  -6.350  0.00  0.00    -0.004 A 
ENDBRANCH   1   2
BRANCH   1   8
ATOM      8  CA  PHE A   1     -32.815 -23.501  -9.328  0.00  0.00    +0.137 C 
BRANCH   8   9
ATOM      9  N   PHE A   1     -33.815 -22.532  -9.860  0.00  0.00    -0.239 NA
ATOM     10  H   PHE A   1     -34.732 -22.394  -9.389  0.00  0.00    +0.142 HD
ENDBRANCH   8   9
BRANCH   8  11
ATOM     11  C   PHE A   1     -32.558 -24.647 -10.310  0.00  0.00    +0.224 C 
ATOM     12  O   PHE A   1     -31.451 -25.187 -10.384  0.00  0.00    -0.287 OA
ENDBRANCH   8  11
ENDBRANCH   1   8
TORSDOF 4
REMARK  Name = ../refined-set-2016/4ea2/4ea2_pocket.pdb
REMARK  233 active torsions:
REMARK  status: ('A' for Active; 'I' for Inactive)
REMARK    1  A    between atoms: _1  and  _3
REMARK    2  A    between atoms: _3  and  _4
REMARK    3  A    between atoms: _3  and  _6
REMARK    4  A    between atoms: _6  and  _7
REMARK    5  A    between atoms: _10  and  _12
REMARK    6  A    between atoms: _12  and  _13
REMARK    7  A    between atoms: _12  and  _15
REMARK    8  A    between atoms: _15  and  _16
REMARK    9  A    between atoms: _16  and  _17
REMARK   10  A    between atoms: _19  and  _21
REMARK   11  A    between atoms: _21  and  _22
REMARK   12  A    between atoms: _21  and  _24
REMARK   13  A    between atoms: _24  and  _25
REMARK   14  A    between atoms: _30  and  _32
REMARK   15  A    between atoms: _32  and  _33
REMARK   16  A    between atoms: _32  and  _35
REMARK   17  A    between atoms: _35  and  _36
REMARK   18  A    between atoms: _38  and  _40
REMARK   19  A    between atoms: _40  and  _41
REMARK   20  A    between atoms: _40  and  _43
REMARK   21  A    between atoms: _43  and  _44
REMARK   22  A    between atoms: _46  and  _48
REMARK   23  A    between atoms: _48  and  _49
REMARK   24  A    between atoms: _48  and  _51
REMARK   25  A    between atoms: _51  and  _52
REMARK   26  A    between atoms: _58  and  _60
REMARK   27  A    between atoms: _60  and  _61
REMARK   28  A    between atoms: _64  and  _66
REMARK   29  A    between atoms: _66  and  _67
REMARK   30  A    between atoms: _66  and  _69
REMARK   31  A    between atoms: _69  and  _70
REMARK   32  A    between atoms: _76  and  _78
REMARK   33  A    between atoms: _78  and  _79
REMARK   34  A    between atoms: _78  and  _81
REMARK   35  A    between atoms: _84  and  _86
REMARK   36  A    between atoms: _86  and  _87
REMARK   37  A    between atoms: _86  and  _89
REMARK   38  A    between atoms: _89  and  _90
REMARK   39  A    between atoms: _93  and  _95
REMARK   40  A    between atoms: _95  and  _96
REMARK   41  A    between atoms: _95  and  _98
REMARK   42  A    between atoms: _98  and  _99
REMARK   43  A    between atoms: _104  and  _105
REMARK   44  A    between atoms: _107  and  _109
REMARK   45  A    between atoms: _109  and  _110
REMARK   46  A    between atoms: _113  and  _115
REMARK   47  A    between atoms: _115  and  _116
REMARK   48  A    between atoms: _115  and  _118
REMARK   49  A    between atoms: _121  and  _123
REMARK   50  A    between atoms: _123  and  _124
REMARK   51  A    between atoms: _123  and  _126
REMARK   52  A    between atoms: _128  and  _130
REMARK   53  A    between atoms: _130  and  _131
REMARK   54  A    between atoms: _130  and  _133
REMARK   55  A    between atoms: _133  and  _134
REMARK   56  A    between atoms: _134  and  _135
REMARK   57  A    between atoms: _135  and  _136
REMARK   58  A    between atoms: _145  and  _147
REMARK   59  A    between atoms: _147  and  _148
REMARK   60  A    between atoms: _147  and  _150
REMARK   61  A    between atoms: _150  and  _151
REMARK   62  A    between atoms: _151  and  _152
REMARK   63  A    between atoms: _152  and  _153
REMARK   64  A    between atoms: _153  and  _154
REMARK   65  A    between atoms: _158  and  _160
REMARK   66  A    between atoms: _160  and  _161
REMARK   67  A    between atoms: _160  and  _163
REMARK   68  A    between atoms: _163  and  _164
REMARK   69  A    between atoms: _167  and  _169
REMARK   70  A    between atoms: _169  and  _170
REMARK   71  A    between atoms: _169  and  _172
REMARK   72  A    between atoms: _172  and  _173
REMARK   73  A    between atoms: _176  and  _178
REMARK   74  A    between atoms: _178  and  _179
REMARK   75  A    between atoms: _178  and  _181
REMARK   76  A    between atoms: _181  and  _182
REMARK   77  A    between atoms: _185  and  _187
REMARK   78  A    between atoms: _187  and  _188
REMARK   79  A    between atoms: _187  and  _190
REMARK   80  A    between atoms: _190  and  _191
REMARK   81  A    between atoms: _197  and  _199
REMARK   82  A    between atoms: _199  and  _200
REMARK   83  A    between atoms: _199  and  _202
REMARK   84  A    between atoms: _202  and  _203
REMARK   85  A    between atoms: _206  and  _208
REMARK   86  A    between atoms: _208  and  _209
REMARK   87  A    between atoms: _208  and  _211
REMARK   88  A    between atoms: _211  and  _212
REMARK   89  A    between atoms: _215  and  _217
REMARK   90  A    between atoms: _217  and  _218
REMARK   91  A    between atoms: _217  and  _220
REMARK   92  A    between atoms: _223  and  _225
REMARK   93  A    between atoms: _225  and  _226
REMARK   94  A    between atoms: _225  and  _228
REMARK   95  A    between atoms: _228  and  _229
REMARK   96  A    between atoms: _234  and  _235
REMARK   97  A    between atoms: _237  and  _239
REMARK   98  A    between atoms: _239  and  _240
REMARK   99  A    between atoms: _239  and  _242
REMARK  100  A    between atoms: _244  and  _246
REMARK  101  A    between atoms: _246  and  _247
REMARK  102  A    between atoms: _246  and  _249
REMARK  103  A    between atoms: _249  and  _250
REMARK  104  A    between atoms: _255  and  _256
REMARK  105  A    between atoms: _258  and  _260
REMARK  106  A    between atoms: _260  and  _261
REMARK  107  A    between atoms: _263  and  _265
REMARK  108  A    between atoms: _265  and  _266
REMARK  109  A    between atoms: _265  and  _268
REMARK  110  A    between atoms: _271  and  _273
REMARK  111  A    between atoms: _273  and  _274
REMARK  112  A    between atoms: _277  and  _279
REMARK  113  A    between atoms: _279  and  _280
REMARK  114  A    between atoms: _282  and  _284
REMARK  115  A    between atoms: _284  and  _285
REMARK  116  A    between atoms: _284  and  _287
REMARK  117  A    between atoms: _287  and  _288
REMARK  118  A    between atoms: _291  and  _293
REMARK  119  A    between atoms: _293  and  _294
REMARK  120  A    between atoms: _293  and  _296
REMARK  121  A    between atoms: _299  and  _301
REMARK  122  A    between atoms: _301  and  _302
REMARK  123  A    between atoms: _304  and  _306
REMARK  124  A    between atoms: _306  and  _307
REMARK  125  A    between atoms: _306  and  _309
REMARK  126  A    between atoms: _309  and  _310
REMARK  127  A    between atoms: _310  and  _311
REMARK  128  A    between atoms: _314  and  _316
REMARK  129  A    between atoms: _316  and  _317
REMARK  130  A    between atoms: _316  and  _319
REMARK  131  A    between atoms: _322  and  _324
REMARK  132  A    between atoms: _324  and  _325
REMARK  133  A    between atoms: _324  and  _327
REMARK  134  A    between atoms: _327  and  _328
REMARK  135  A    between atoms: _331  and  _333
REMARK  136  A    between atoms: _333  and  _334
REMARK  137  A    between atoms: _333  and  _336
REMARK  138  A    between atoms: _336  and  _337
REMARK  139  A    between atoms: _340  and  _342
REMARK  140  A    between atoms: _342  and  _343
REMARK  141  A    between atoms: _342  and  _345
REMARK  142  A    between atoms: _345  and  _346
REMARK  143  A    between atoms: _349  and  _351
REMARK  144  A    between atoms: _351  and  _352
REMARK  145  A    between atoms: _351  and  _354
REMARK  146  A    between atoms: _357  and  _359
REMARK  147  A    between atoms: _359  and  _360
REMARK  148  A    between atoms: _363  and  _365
REMARK  149  A    between atoms: _365  and  _366
REMARK  150  A    between atoms: _365  and  _368
REMARK  151  A    between atoms: _368  and  _369
REMARK  152  A    between atoms: _369  and  _370
REMARK  153  A    between atoms: _370  and  _371
REMARK  154  A    between atoms: _380  and  _382
REMARK  155  A    between atoms: _382  and  _383
REMARK  156  A    between atoms: _382  and  _385
REMARK  157  A    between atoms: _385  and  _386
REMARK  158  A    between atoms: _386  and  _387
REMARK  159  A    between atoms: _387  and  _388
REMARK  160  A    between atoms: _397  and  _399
REMARK  161  A    between atoms: _399  and  _400
REMARK  162  A    between atoms: _399  and  _402
REMARK  163  A    between atoms: _402  and  _403
REMARK  164  A    between atoms: _406  and  _408
REMARK  165  A    between atoms: _408  and  _409
REMARK  166  A    between atoms: _411  and  _413
REMARK  167  A    between atoms: _413  and  _414
REMARK  168  A    between atoms: _413  and  _416
REMARK  169  A    between atoms: _416  and  _417
REMARK  170  A    between atoms: _417  and  _418
REMARK  171  A    between atoms: _421  and  _423
REMARK  172  A    between atoms: _423  and  _424
REMARK  173  A    between atoms: _423  and  _426
REMARK  174  A    between atoms: _426  and  _427
REMARK  175  A    between atoms: _429  and  _431
REMARK  176  A    between atoms: _431  and  _432
REMARK  177  A    between atoms: _431  and  _434
REMARK  178  A    between atoms: _434  and  _435
REMARK  179  A    between atoms: _438  and  _440
REMARK  180  A    between atoms: _440  and  _441
REMARK  181  A    between atoms: _440  and  _443
REMARK  182  A    between atoms: _443  and  _444
REMARK  183  A    between atoms: _444  and  _445
REMARK  184  A    between atoms: _450  and  _452
REMARK  185  A    between atoms: _452  and  _453
REMARK  186  A    between atoms: _452  and  _455
REMARK  187  A    between atoms: _455  and  _456
REMARK  188  A    between atoms: _459  and  _461
REMARK  189  A    between atoms: _461  and  _462
REMARK  190  A    between atoms: _461  and  _464
REMARK  191  A    between atoms: _464  and  _465
REMARK  192  A    between atoms: _468  and  _470
REMARK  193  A    between atoms: _470  and  _471
REMARK  194  A    between atoms: _470  and  _473
REMARK  195  A    between atoms: _473  and  _474
REMARK  196  A    between atoms: _479  and  _481
REMARK  197  A    between atoms: _481  and  _482
REMARK  198  A    between atoms: _481  and  _484
REMARK  199  A    between atoms: _484  and  _485
REMARK  200  A    between atoms: _488  and  _490
REMARK  201  A    between atoms: _490  and  _491
REMARK  202  A    between atoms: _490  and  _493
REMARK  203  A    between atoms: _493  and  _494
REMARK  204  A    between atoms: _494  and  _495
REMARK  205  A    between atoms: _495  and  _496
REMARK  206  A    between atoms: _505  and  _507
REMARK  207  A    between atoms: _507  and  _508
REMARK  208  A    between atoms: _507  and  _510
REMARK  209  A    between atoms: _510  and  _511
REMARK  210  A    between atoms: _514  and  _516
REMARK  211  A    between atoms: _516  and  _517
REMARK  212  A    between atoms: _516  and  _519
REMARK  213  A    between atoms: _522  and  _524
REMARK  214  A    between atoms: _524  and  _525
REMARK  215  A    between atoms: _524  and  _527
REMARK  216  A    between atoms: _527  and  _528
REMARK  217  A    between atoms: _534  and  _536
REMARK  218  A    between atoms: _536  and  _537
REMARK  219  A    between atoms: _536  and  _539
REMARK  220  A    between atoms: _539  and  _540
REMARK  221  A    between atoms: _543  and  _545
REMARK  222  A    between atoms: _545  and  _546
REMARK  223  A    between atoms: _549  and  _551
REMARK  224  A    between atoms: _551  and  _552
REMARK  225  A    between atoms: _555  and  _557
REMARK  226  A    between atoms: _557  and  _558
REMARK  227  A    between atoms: _557  and  _560
REMARK  228  A    between atoms: _560  and  _561
REMARK  229  A    between atoms: _566  and  _567
REMARK  230  A    between atoms: _569  and  _571
REMARK  231  A    between atoms: _571  and  _572
REMARK  232  A    between atoms: _571  and  _574
REMARK  233  A    between atoms: _574  and  _575
REMARK                            x       y       z     vdW  Elec       q    Type
REMARK                         _______ _______ _______ _____ _____    ______ ____
ROOT
ATOM      1  CA  LEU A   1     -28.787 -23.565 -12.294  0.00  0.00    +0.133 C 
ENDROOT
BRANCH   1   2
ATOM      2  N   LEU A   1     -30.118 -23.549 -12.867  0.00  0.00    -0.239 NA
ATOM      3  H   LEU A   1     -30.900 -23.149 -12.310  0.00  0.00    +0.142 HD
ENDBRANCH   1   2
BRANCH   1   4
ATOM      4  C   LEU A   1     -28.216 -25.001 -12.228  0.00  0.00    +0.224 C 
ATOM      5  O   LEU A   1     -27.070 -25.267 -12.628  0.00  0.00    -0.287 OA
ENDBRANCH   1   4
BRANCH   1   6
ATOM      6  CB  LEU A   1     -28.803 -22.948 -10.902  0.00  0.00    +0.025 C 
BRANCH   6   7
ATOM      7  CG  LEU A   1     -27.489 -23.062 -10.114  0.00  0.00    +0.002 C 
ATOM      8  CD2 LEU A   1     -27.699 -22.534  -8.645  0.00  0.00    +0.000 C 
ATOM      9  CD1 LEU A   1     -26.339 -22.282 -10.788  0.00  0.00    +0.000 C 
ENDBRANCH   6   7
ENDBRANCH   1   6
TORSDOF 4
REMARK  Name = ../refined-set-2016/4ea2/4ea2_pocket.pdb
REMARK  233 active torsions:
REMARK  status: ('A' for Active; 'I' for Inactive)
REMARK    1  A    between atoms: _1  and  _3
REMARK    2  A    between atoms: _3  and  _4
REMARK    3  A    between atoms: _3  and  _6
REMARK    4  A    between atoms: _6  and  _7
REMARK    5  A    between atoms: _10  and  _12
REMARK    6  A    between atoms: _12  and  _13
REMARK    7  A    between atoms: _12  and  _15
REMARK    8  A    between atoms: _15  and  _16
REMARK    9  A    between atoms: _16  and  _17
REMARK   10  A    between atoms: _19  and  _21
REMARK   11  A    between atoms: _21  and  _22
REMARK   12  A    between atoms: _21  and  _24
REMARK   13  A    between atoms: _24  and  _25
REMARK   14  A    between atoms: _30  and  _32
REMARK   15  A    between atoms: _32  and  _33
REMARK   16  A    between atoms: _32  and  _35
REMARK   17  A    between atoms: _35  and  _36
REMARK   18  A    between atoms: _38  and  _40
REMARK   19  A    between atoms: _40  and  _41
REMARK   20  A    between atoms: _40  and  _43
REMARK   21  A    between atoms: _43  and  _44
REMARK   22  A    between atoms: _46  and  _48
REMARK   23  A    between atoms: _48  and  _49
REMARK   24  A    between atoms: _48  and  _51
REMARK   25  A    between atoms: _51  and  _52
REMARK   26  A    between atoms: _58  and  _60
REMARK   27  A    between atoms: _60  and  _61
REMARK   28  A    between atoms: _64  and  _66
REMARK   29  A    between atoms: _66  and  _67
REMARK   30  A    between atoms: _66  and  _69
REMARK   31  A    between atoms: _69  and  _70
REMARK   32  A    between atoms: _76  and  _78
REMARK   33  A    between atoms: _78  and  _79
REMARK   34  A    between atoms: _78  and  _81
REMARK   35  A    between atoms: _84  and  _86
REMARK   36  A    between atoms: _86  and  _87
REMARK   37  A    between atoms: _86  and  _89
REMARK   38  A    between atoms: _89  and  _90
REMARK   39  A    between atoms: _93  and  _95
REMARK   40  A    between atoms: _95  and  _96
REMARK   41  A    between atoms: _95  and  _98
REMARK   42  A    between atoms: _98  and  _99
REMARK   43  A    between atoms: _104  and  _105
REMARK   44  A    between atoms: _107  and  _109
REMARK   45  A    between atoms: _109  and  _110
REMARK   46  A    between atoms: _113  and  _115
REMARK   47  A    between atoms: _115  and  _116
REMARK   48  A    between atoms: _115  and  _118
REMARK   49  A    between atoms: _121  and  _123
REMARK   50  A    between atoms: _123  and  _124
REMARK   51  A    between atoms: _123  and  _126
REMARK   52  A    between atoms: _128  and  _130
REMARK   53  A    between atoms: _130  and  _131
REMARK   54  A    between atoms: _130  and  _133
REMARK   55  A    between atoms: _133  and  _134
REMARK   56  A    between atoms: _134  and  _135
REMARK   57  A    between atoms: _135  and  _136
REMARK   58  A    between atoms: _145  and  _147
REMARK   59  A    between atoms: _147  and  _148
REMARK   60  A    between atoms: _147  and  _150
REMARK   61  A    between atoms: _150  and  _151
REMARK   62  A    between atoms: _151  and  _152
REMARK   63  A    between atoms: _152  and  _153
REMARK   64  A    between atoms: _153  and  _154
REMARK   65  A    between atoms: _158  and  _160
REMARK   66  A    between atoms: _160  and  _161
REMARK   67  A    between atoms: _160  and  _163
REMARK   68  A    between atoms: _163  and  _164
REMARK   69  A    between atoms: _167  and  _169
REMARK   70  A    between atoms: _169  and  _170
REMARK   71  A    between atoms: _169  and  _172
REMARK   72  A    between atoms: _172  and  _173
REMARK   73  A    between atoms: _176  and  _178
REMARK   74  A    between atoms: _178  and  _179
REMARK   75  A    between atoms: _178  and  _181
REMARK   76  A    between atoms: _181  and  _182
REMARK   77  A    between atoms: _185  and  _187
REMARK   78  A    between atoms: _187  and  _188
REMARK   79  A    between atoms: _187  and  _190
REMARK   80  A    between atoms: _190  and  _191
REMARK   81  A    between atoms: _197  and  _199
REMARK   82  A    between atoms: _199  and  _200
REMARK   83  A    between atoms: _199  and  _202
REMARK   84  A    between atoms: _202  and  _203
REMARK   85  A    between atoms: _206  and  _208
REMARK   86  A    between atoms: _208  and  _209
REMARK   87  A    between atoms: _208  and  _211
REMARK   88  A    between atoms: _211  and  _212
REMARK   89  A    between atoms: _215  and  _217
REMARK   90  A    between atoms: _217  and  _218
REMARK   91  A    between atoms: _217  and  _220
REMARK   92  A    between atoms: _223  and  _225
REMARK   93  A    between atoms: _225  and  _226
REMARK   94  A    between atoms: _225  and  _228
REMARK   95  A    between atoms: _228  and  _229
REMARK   96  A    between atoms: _234  and  _235
REMARK   97  A    between atoms: _237  and  _239
REMARK   98  A    between atoms: _239  and  _240
REMARK   99  A    between atoms: _239  and  _242
REMARK  100  A    between atoms: _244  and  _246
REMARK  101  A    between atoms: _246  and  _247
REMARK  102  A    between atoms: _246  and  _249
REMARK  103  A    between atoms: _249  and  _250
REMARK  104  A    between atoms: _255  and  _256
REMARK  105  A    between atoms: _258  and  _260
REMARK  106  A    between atoms: _260  and  _261
REMARK  107  A    between atoms: _263  and  _265
REMARK  108  A    between atoms: _265  and  _266
REMARK  109  A    between atoms: _265  and  _268
REMARK  110  A    between atoms: _271  and  _273
REMARK  111  A    between atoms: _273  and  _274
REMARK  112  A    between atoms: _277  and  _279
REMARK  113  A    between atoms: _279  and  _280
REMARK  114  A    between atoms: _282  and  _284
REMARK  115  A    between atoms: _284  and  _285
REMARK  116  A    between atoms: _284  and  _287
REMARK  117  A    between atoms: _287  and  _288
REMARK  118  A    between atoms: _291  and  _293
REMARK  119  A    between atoms: _293  and  _294
REMARK  120  A    between atoms: _293  and  _296
REMARK  121  A    between atoms: _299  and  _301
REMARK  122  A    between atoms: _301  and  _302
REMARK  123  A    between atoms: _304  and  _306
REMARK  124  A    between atoms: _306  and  _307
REMARK  125  A    between atoms: _306  and  _309
REMARK  126  A    between atoms: _309  and  _310
REMARK  127  A    between atoms: _310  and  _311
REMARK  128  A    between atoms: _314  and  _316
REMARK  129  A    between atoms: _316  and  _317
REMARK  130  A    between atoms: _316  and  _319
REMARK  131  A    between atoms: _322  and  _324
REMARK  132  A    between atoms: _324  and  _325
REMARK  133  A    between atoms: _324  and  _327
REMARK  134  A    between atoms: _327  and  _328
REMARK  135  A    between atoms: _331  and  _333
REMARK  136  A    between atoms: _333  and  _334
REMARK  137  A    between atoms: _333  and  _336
REMARK  138  A    between atoms: _336  and  _337
REMARK  139  A    between atoms: _340  and  _342
REMARK  140  A    between atoms: _342  and  _343
REMARK  141  A    between atoms: _342  and  _345
REMARK  142  A    between atoms: _345  and  _346
REMARK  143  A    between atoms: _349  and  _351
REMARK  144  A    between atoms: _351  and  _352
REMARK  145  A    between atoms: _351  and  _354
REMARK  146  A    between atoms: _357  and  _359
REMARK  147  A    between atoms: _359  and  _360
REMARK  148  A    between atoms: _363  and  _365
REMARK  149  A    between atoms: _365  and  _366
REMARK  150  A    between atoms: _365  and  _368
REMARK  151  A    between atoms: _368  and  _369
REMARK  152  A    between atoms: _369  and  _370
REMARK  153  A    between atoms: _370  and  _371
REMARK  154  A    between atoms: _380  and  _382
REMARK  155  A    between atoms: _382  and  _383
REMARK  156  A    between atoms: _382  and  _385
REMARK  157  A    between atoms: _385  and  _386
REMARK  158  A    between atoms: _386  and  _387
REMARK  159  A    between atoms: _387  and  _388
REMARK  160  A    between atoms: _397  and  _399
REMARK  161  A    between atoms: _399  and  _400
REMARK  162  A    between atoms: _399  and  _402
REMARK  163  A    between atoms: _402  and  _403
REMARK  164  A    between atoms: _406  and  _408
REMARK  165  A    between atoms: _408  and  _409
REMARK  166  A    between atoms: _411  and  _413
REMARK  167  A    between atoms: _413  and  _414
REMARK  168  A    between atoms: _413  and  _416
REMARK  169  A    between atoms: _416  and  _417
REMARK  170  A    between atoms: _417  and  _418
REMARK  171  A    between atoms: _421  and  _423
REMARK  172  A    between atoms: _423  and  _424
REMARK  173  A    between atoms: _423  and  _426
REMARK  174  A    between atoms: _426  and  _427
REMARK  175  A    between atoms: _429  and  _431
REMARK  176  A    between atoms: _431  and  _432
REMARK  177  A    between atoms: _431  and  _434
REMARK  178  A    between atoms: _434  and  _435
REMARK  179  A    between atoms: _438  and  _440
REMARK  180  A    between atoms: _440  and  _441
REMARK  181  A    between atoms: _440  and  _443
REMARK  182  A    between atoms: _443  and  _444
REMARK  183  A    between atoms: _444  and  _445
REMARK  184  A    between atoms: _450  and  _452
REMARK  185  A    between atoms: _452  and  _453
REMARK  186  A    between atoms: _452  and  _455
REMARK  187  A    between atoms: _455  and  _456
REMARK  188  A    between atoms: _459  and  _461
REMARK  189  A    between atoms: _461  and  _462
REMARK  190  A    between atoms: _461  and  _464
REMARK  191  A    between atoms: _464  and  _465
REMARK  192  A    between atoms: _468  and  _470
REMARK  193  A    between atoms: _470  and  _471
REMARK  194  A    between atoms: _470  and  _473
REMARK  195  A    between atoms: _473  and  _474
REMARK  196  A    between atoms: _479  and  _481
REMARK  197  A    between atoms: _481  and  _482
REMARK  198  A    between atoms: _481  and  _484
REMARK  199  A    between atoms: _484  and  _485
REMARK  200  A    between atoms: _488  and  _490
REMARK  201  A    between atoms: _490  and  _491
REMARK  202  A    between atoms: _490  and  _493
REMARK  203  A    between atoms: _493  and  _494
REMARK  204  A    between atoms: _494  and  _495
REMARK  205  A    between atoms: _495  and  _496
REMARK  206  A    between atoms: _505  and  _507
REMARK  207  A    between atoms: _507  and  _508
REMARK  208  A    between atoms: _507  and  _510
REMARK  209  A    between atoms: _510  and  _511
REMARK  210  A    between atoms: _514  and  _516
REMARK  211  A    between atoms: _516  and  _517
REMARK  212  A    between atoms: _516  and  _519
REMARK  213  A    between atoms: _522  and  _524
REMARK  214  A    between atoms: _524  and  _525
REMARK  215  A    between atoms: _524  and  _527
REMARK  216  A    between atoms: _527  and  _528
REMARK  217  A    between atoms: _534  and  _536
REMARK  218  A    between atoms: _536  and  _537
REMARK  219  A    between atoms: _536  and  _539
REMARK  220  A    between atoms: _539  and  _540
REMARK  221  A    between atoms: _543  and  _545
REMARK  222  A    between atoms: _545  and  _546
REMARK  223  A    between atoms: _549  and  _551
REMARK  224  A    between atoms: _551  and  _552
REMARK  225  A    between atoms: _555  and  _557
REMARK  226  A    between atoms: _557  and  _558
REMARK  227  A    between atoms: _557  and  _560
REMARK  228  A    between atoms: _560  and  _561
REMARK  229  A    between atoms: _566  and  _567
REMARK  230  A    between atoms: _569  and  _571
REMARK  231  A    between atoms: _571  and  _572
REMARK  232  A    between atoms: _571  and  _574
REMARK  233  A    between atoms: _574  and  _575
REMARK                            x       y       z     vdW  Elec       q    Type
REMARK                         _______ _______ _______ _____ _____    ______ ____
ROOT
ATOM      1  C   THR A   1     -24.736 -26.267 -15.391  0.00  0.00    +0.241 C 
ATOM      2  N   VAL A   2     -24.880 -26.576 -14.116  0.00  0.00    -0.298 N 
ATOM      3  H   VAL A   2     -25.765 -26.350 -13.618  0.00  0.00    +0.150 HD
ATOM      4  O   THR A   1     -23.639 -26.386 -15.987  0.00  0.00    -0.274 OA
ENDROOT
BRANCH   1   5
ATOM      5  CA  THR A   1     -25.954 -25.669 -16.069  0.00  0.00    +0.172 C 
BRANCH   5   6
ATOM      6  N   THR A   1     -27.170 -26.297 -15.638  0.00  0.00    -0.236 NA
ATOM      7  H   THR A   1     -27.848 -25.752 -15.068  0.00  0.00    +0.142 HD
ENDBRANCH   5   6
BRANCH   5   8
ATOM      8  CB  THR A   1     -25.994 -24.161 -15.769  0.00  0.00    +0.135 C 
ATOM      9  CG2 THR A   1     -24.733 -23.456 -16.332  0.00  0.00    +0.034 C 
BRANCH   8  10
ATOM     10  OG1 THR A   1     -27.166 -23.628 -16.377  0.00  0.00    -0.383 OA
ATOM     11  HG1 THR A   1     -27.965 -24.075 -16.000  0.00  0.00    +0.210 HD
ENDBRANCH   8  10
ENDBRANCH   5   8
ENDBRANCH   1   5
BRANCH   2  12
ATOM     12  CA  VAL A   2     -23.786 -27.238 -13.411  0.00  0.00    +0.137 C 
BRANCH  12  13
ATOM     13  CB  VAL A   2     -24.029 -27.207 -11.889  0.00  0.00    +0.026 C 
ATOM     14  CG2 VAL A   2     -23.123 -28.163 -11.158  0.00  0.00    +0.002 C 
ATOM     15  CG1 VAL A   2     -23.932 -25.763 -11.366  0.00  0.00    +0.002 C 
ENDBRANCH  12  13
BRANCH  12  16
ATOM     16  C   VAL A   2     -23.564 -28.665 -13.960  0.00  0.00    +0.227 C 
ATOM     17  O   VAL A   2     -22.419 -29.052 -14.263  0.00  0.00    -0.286 OA
ENDBRANCH  12  16
ENDBRANCH   2  12
TORSDOF 7
REMARK  Name = ../refined-set-2016/4ea2/4ea2_pocket.pdb
REMARK  233 active torsions:
REMARK  status: ('A' for Active; 'I' for Inactive)
REMARK    1  A    between atoms: _1  and  _3
REMARK    2  A    between atoms: _3  and  _4
REMARK    3  A    between atoms: _3  and  _6
REMARK    4  A    between atoms: _6  and  _7
REMARK    5  A    between atoms: _10  and  _12
REMARK    6  A    between atoms: _12  and  _13
REMARK    7  A    between atoms: _12  and  _15
REMARK    8  A    between atoms: _15  and  _16
REMARK    9  A    between atoms: _16  and  _17
REMARK   10  A    between atoms: _19  and  _21
REMARK   11  A    between atoms: _21  and  _22
REMARK   12  A    between atoms: _21  and  _24
REMARK   13  A    between atoms: _24  and  _25
REMARK   14  A    between atoms: _30  and  _32
REMARK   15  A    between atoms: _32  and  _33
REMARK   16  A    between atoms: _32  and  _35
REMARK   17  A    between atoms: _35  and  _36
REMARK   18  A    between atoms: _38  and  _40
REMARK   19  A    between atoms: _40  and  _41
REMARK   20  A    between atoms: _40  and  _43
REMARK   21  A    between atoms: _43  and  _44
REMARK   22  A    between atoms: _46  and  _48
REMARK   23  A    between atoms: _48  and  _49
REMARK   24  A    between atoms: _48  and  _51
REMARK   25  A    between atoms: _51  and  _52
REMARK   26  A    between atoms: _58  and  _60
REMARK   27  A    between atoms: _60  and  _61
REMARK   28  A    between atoms: _64  and  _66
REMARK   29  A    between atoms: _66  and  _67
REMARK   30  A    between atoms: _66  and  _69
REMARK   31  A    between atoms: _69  and  _70
REMARK   32  A    between atoms: _76  and  _78
REMARK   33  A    between atoms: _78  and  _79
REMARK   34  A    between atoms: _78  and  _81
REMARK   35  A    between atoms: _84  and  _86
REMARK   36  A    between atoms: _86  and  _87
REMARK   37  A    between atoms: _86  and  _89
REMARK   38  A    between atoms: _89  and  _90
REMARK   39  A    between atoms: _93  and  _95
REMARK   40  A    between atoms: _95  and  _96
REMARK   41  A    between atoms: _95  and  _98
REMARK   42  A    between atoms: _98  and  _99
REMARK   43  A    between atoms: _104  and  _105
REMARK   44  A    between atoms: _107  and  _109
REMARK   45  A    between atoms: _109  and  _110
REMARK   46  A    between atoms: _113  and  _115
REMARK   47  A    between atoms: _115  and  _116
REMARK   48  A    between atoms: _115  and  _118
REMARK   49  A    between atoms: _121  and  _123
REMARK   50  A    between atoms: _123  and  _124
REMARK   51  A    between atoms: _123  and  _126
REMARK   52  A    between atoms: _128  and  _130
REMARK   53  A    between atoms: _130  and  _131
REMARK   54  A    between atoms: _130  and  _133
REMARK   55  A    between atoms: _133  and  _134
REMARK   56  A    between atoms: _134  and  _135
REMARK   57  A    between atoms: _135  and  _136
REMARK   58  A    between atoms: _145  and  _147
REMARK   59  A    between atoms: _147  and  _148
REMARK   60  A    between atoms: _147  and  _150
REMARK   61  A    between atoms: _150  and  _151
REMARK   62  A    between atoms: _151  and  _152
REMARK   63  A    between atoms: _152  and  _153
REMARK   64  A    between atoms: _153  and  _154
REMARK   65  A    between atoms: _158  and  _160
REMARK   66  A    between atoms: _160  and  _161
REMARK   67  A    between atoms: _160  and  _163
REMARK   68  A    between atoms: _163  and  _164
REMARK   69  A    between atoms: _167  and  _169
REMARK   70  A    between atoms: _169  and  _170
REMARK   71  A    between atoms: _169  and  _172
REMARK   72  A    between atoms: _172  and  _173
REMARK   73  A    between atoms: _176  and  _178
REMARK   74  A    between atoms: _178  and  _179
REMARK   75  A    between atoms: _178  and  _181
REMARK   76  A    between atoms: _181  and  _182
REMARK   77  A    between atoms: _185  and  _187
REMARK   78  A    between atoms: _187  and  _188
REMARK   79  A    between atoms: _187  and  _190
REMARK   80  A    between atoms: _190  and  _191
REMARK   81  A    between atoms: _197  and  _199
REMARK   82  A    between atoms: _199  and  _200
REMARK   83  A    between atoms: _199  and  _202
REMARK   84  A    between atoms: _202  and  _203
REMARK   85  A    between atoms: _206  and  _208
REMARK   86  A    between atoms: _208  and  _209
REMARK   87  A    between atoms: _208  and  _211
REMARK   88  A    between atoms: _211  and  _212
REMARK   89  A    between atoms: _215  and  _217
REMARK   90  A    between atoms: _217  and  _218
REMARK   91  A    between atoms: _217  and  _220
REMARK   92  A    between atoms: _223  and  _225
REMARK   93  A    between atoms: _225  and  _226
REMARK   94  A    between atoms: _225  and  _228
REMARK   95  A    between atoms: _228  and  _229
REMARK   96  A    between atoms: _234  and  _235
REMARK   97  A    between atoms: _237  and  _239
REMARK   98  A    between atoms: _239  and  _240
REMARK   99  A    between atoms: _239  and  _242
REMARK  100  A    between atoms: _244  and  _246
REMARK  101  A    between atoms: _246  and  _247
REMARK  102  A    between atoms: _246  and  _249
REMARK  103  A    between atoms: _249  and  _250
REMARK  104  A    between atoms: _255  and  _256
REMARK  105  A    between atoms: _258  and  _260
REMARK  106  A    between atoms: _260  and  _261
REMARK  107  A    between atoms: _263  and  _265
REMARK  108  A    between atoms: _265  and  _266
REMARK  109  A    between atoms: _265  and  _268
REMARK  110  A    between atoms: _271  and  _273
REMARK  111  A    between atoms: _273  and  _274
REMARK  112  A    between atoms: _277  and  _279
REMARK  113  A    between atoms: _279  and  _280
REMARK  114  A    between atoms: _282  and  _284
REMARK  115  A    between atoms: _284  and  _285
REMARK  116  A    between atoms: _284  and  _287
REMARK  117  A    between atoms: _287  and  _288
REMARK  118  A    between atoms: _291  and  _293
REMARK  119  A    between atoms: _293  and  _294
REMARK  120  A    between atoms: _293  and  _296
REMARK  121  A    between atoms: _299  and  _301
REMARK  122  A    between atoms: _301  and  _302
REMARK  123  A    between atoms: _304  and  _306
REMARK  124  A    between atoms: _306  and  _307
REMARK  125  A    between atoms: _306  and  _309
REMARK  126  A    between atoms: _309  and  _310
REMARK  127  A    between atoms: _310  and  _311
REMARK  128  A    between atoms: _314  and  _316
REMARK  129  A    between atoms: _316  and  _317
REMARK  130  A    between atoms: _316  and  _319
REMARK  131  A    between atoms: _322  and  _324
REMARK  132  A    between atoms: _324  and  _325
REMARK  133  A    between atoms: _324  and  _327
REMARK  134  A    between atoms: _327  and  _328
REMARK  135  A    between atoms: _331  and  _333
REMARK  136  A    between atoms: _333  and  _334
REMARK  137  A    between atoms: _333  and  _336
REMARK  138  A    between atoms: _336  and  _337
REMARK  139  A    between atoms: _340  and  _342
REMARK  140  A    between atoms: _342  and  _343
REMARK  141  A    between atoms: _342  and  _345
REMARK  142  A    between atoms: _345  and  _346
REMARK  143  A    between atoms: _349  and  _351
REMARK  144  A    between atoms: _351  and  _352
REMARK  145  A    between atoms: _351  and  _354
REMARK  146  A    between atoms: _357  and  _359
REMARK  147  A    between atoms: _359  and  _360
REMARK  148  A    between atoms: _363  and  _365
REMARK  149  A    between atoms: _365  and  _366
REMARK  150  A    between atoms: _365  and  _368
REMARK  151  A    between atoms: _368  and  _369
REMARK  152  A    between atoms: _369  and  _370
REMARK  153  A    between atoms: _370  and  _371
REMARK  154  A    between atoms: _380  and  _382
REMARK  155  A    between atoms: _382  and  _383
REMARK  156  A    between atoms: _382  and  _385
REMARK  157  A    between atoms: _385  and  _386
REMARK  158  A    between atoms: _386  and  _387
REMARK  159  A    between atoms: _387  and  _388
REMARK  160  A    between atoms: _397  and  _399
REMARK  161  A    between atoms: _399  and  _400
REMARK  162  A    between atoms: _399  and  _402
REMARK  163  A    between atoms: _402  and  _403
REMARK  164  A    between atoms: _406  and  _408
REMARK  165  A    between atoms: _408  and  _409
REMARK  166  A    between atoms: _411  and  _413
REMARK  167  A    between atoms: _413  and  _414
REMARK  168  A    between atoms: _413  and  _416
REMARK  169  A    between atoms: _416  and  _417
REMARK  170  A    between atoms: _417  and  _418
REMARK  171  A    between atoms: _421  and  _423
REMARK  172  A    between atoms: _423  and  _424
REMARK  173  A    between atoms: _423  and  _426
REMARK  174  A    between atoms: _426  and  _427
REMARK  175  A    between atoms: _429  and  _431
REMARK  176  A    between atoms: _431  and  _432
REMARK  177  A    between atoms: _431  and  _434
REMARK  178  A    between atoms: _434  and  _435
REMARK  179  A    between atoms: _438  and  _440
REMARK  180  A    between atoms: _440  and  _441
REMARK  181  A    between atoms: _440  and  _443
REMARK  182  A    between atoms: _443  and  _444
REMARK  183  A    between atoms: _444  and  _445
REMARK  184  A    between atoms: _450  and  _452
REMARK  185  A    between atoms: _452  and  _453
REMARK  186  A    between atoms: _452  and  _455
REMARK  187  A    between atoms: _455  and  _456
REMARK  188  A    between atoms: _459  and  _461
REMARK  189  A    between atoms: _461  and  _462
REMARK  190  A    between atoms: _461  and  _464
REMARK  191  A    between atoms: _464  and  _465
REMARK  192  A    between atoms: _468  and  _470
REMARK  193  A    between atoms: _470  and  _471
REMARK  194  A    between atoms: _470  and  _473
REMARK  195  A    between atoms: _473  and  _474
REMARK  196  A    between atoms: _479  and  _481
REMARK  197  A    between atoms: _481  and  _482
REMARK  198  A    between atoms: _481  and  _484
REMARK  199  A    between atoms: _484  and  _485
REMARK  200  A    between atoms: _488  and  _490
REMARK  201  A    between atoms: _490  and  _491
REMARK  202  A    between atoms: _490  and  _493
REMARK  203  A    between atoms: _493  and  _494
REMARK  204  A    between atoms: _494  and  _495
REMARK  205  A    between atoms: _495  and  _496
REMARK  206  A    between atoms: _505  and  _507
REMARK  207  A    between atoms: _507  and  _508
REMARK  208  A    between atoms: _507  and  _510
REMARK  209  A    between atoms: _510  and  _511
REMARK  210  A    between atoms: _514  and  _516
REMARK  211  A    between atoms: _516  and  _517
REMARK  212  A    between atoms: _516  and  _519
REMARK  213  A    between atoms: _522  and  _524
REMARK  214  A    between atoms: _524  and  _525
REMARK  215  A    between atoms: _524  and  _527
REMARK  216  A    between atoms: _527  and  _528
REMARK  217  A    between atoms: _534  and  _536
REMARK  218  A    between atoms: _536  and  _537
REMARK  219  A    between atoms: _536  and  _539
REMARK  220  A    between atoms: _539  and  _540
REMARK  221  A    between atoms: _543  and  _545
REMARK  222  A    between atoms: _545  and  _546
REMARK  223  A    between atoms: _549  and  _551
REMARK  224  A    between atoms: _551  and  _552
REMARK  225  A    between atoms: _555  and  _557
REMARK  226  A    between atoms: _557  and  _558
REMARK  227  A    between atoms: _557  and  _560
REMARK  228  A    between atoms: _560  and  _561
REMARK  229  A    between atoms: _566  and  _567
REMARK  230  A    between atoms: _569  and  _571
REMARK  231  A    between atoms: _571  and  _572
REMARK  232  A    between atoms: _571  and  _574
REMARK  233  A    between atoms: _574  and  _575
REMARK                            x       y       z     vdW  Elec       q    Type
REMARK                         _______ _______ _______ _____ _____    ______ ____
ROOT
ATOM      1  C   GLY A   7     -30.117 -15.431 -13.059  0.00  0.00    +0.243 C 
ATOM      2  O   GLY A   7     -31.032 -14.813 -12.489  0.00  0.00    -0.273 OA
ATOM      3  N   THR A   8     -30.080 -16.763 -13.116  0.00  0.00    -0.295 N 
ATOM      4  H   THR A   8     -29.345 -17.228 -13.687  0.00  0.00    +0.150 HD
ENDROOT
BRANCH   3   5
ATOM      5  CA  THR A   8     -31.063 -17.594 -12.384  0.00  0.00    +0.176 C 
BRANCH   5   6
ATOM      6  C   THR A   8     -31.080 -17.237 -10.892  0.00  0.00    +0.243 C 
ATOM      7  O   THR A   8     -32.116 -17.272 -10.245  0.00  0.00    -0.273 OA
ATOM      8  N   VAL A   9     -29.909 -16.995 -10.328  0.00  0.00    -0.297 N 
ATOM      9  H   VAL A   9     -29.044 -17.062 -10.902  0.00  0.00    +0.150 HD
BRANCH   8  10
ATOM     10  CA  VAL A   9     -29.803 -16.636  -8.919  0.00  0.00    +0.149 C 
BRANCH  10  11
ATOM     11  C   VAL A   9     -30.465 -15.299  -8.624  0.00  0.00    +0.241 C 
ATOM     12  O   VAL A   9     -31.173 -15.180  -7.635  0.00  0.00    -0.273 OA
ATOM     13  N   GLY A  10     -30.226 -14.300  -9.474  0.00  0.00    -0.295 N 
ATOM     14  H   GLY A  10     -29.522 -14.433 -10.228  0.00  0.00    +0.150 HD
BRANCH  13  15
ATOM     15  CA  GLY A  10     -30.940 -13.002  -9.372  0.00  0.00    +0.176 C 
BRANCH  15  16
ATOM     16  C   GLY A  10     -32.449 -13.180  -9.451  0.00  0.00    +0.243 C 
ATOM     17  O   GLY A  10     -33.186 -12.570  -8.683  0.00  0.00    -0.273 OA
ATOM     18  N   GLU A  11     -32.912 -14.106 -10.287  0.00  0.00    -0.297 N 
ATOM     19  H   GLU A  11     -32.242 -14.626 -10.889  0.00  0.00    +0.150 HD
BRANCH  18  20
ATOM     20  CA  GLU A  11     -34.342 -14.412 -10.382  0.00  0.00    +0.149 C 
BRANCH  20  21
ATOM     21  C   GLU A  11     -34.934 -14.983  -9.078  0.00  0.00    +0.241 C 
ATOM     22  N   VAL A  12     -34.286 -16.005  -8.495  0.00  0.00    -0.297 N 
ATOM     23  H   VAL A  12     -33.474 -16.426  -8.989  0.00  0.00    +0.150 HD
ATOM     24  O   GLU A  11     -36.008 -14.577  -8.673  0.00  0.00    -0.273 OA
BRANCH  22  25
ATOM     25  CA  VAL A  12     -34.679 -16.558  -7.177  0.00  0.00    +0.149 C 
BRANCH  25  26
ATOM     26  C   VAL A  12     -34.713 -15.525  -6.046  0.00  0.00    +0.241 C 
ATOM     27  O   VAL A  12     -35.620 -15.565  -5.221  0.00  0.00    -0.273 OA
ATOM     28  N   LEU A  13     -33.752 -14.590  -6.027  0.00  0.00    -0.297 N 
ATOM     29  H   LEU A  13     -32.979 -14.658  -6.719  0.00  0.00    +0.150 HD
BRANCH  28  30
ATOM     30  CA  LEU A  13     -33.744 -13.476  -5.073  0.00  0.00    +0.149 C 
BRANCH  30  31
ATOM     31  C   LEU A  13     -34.800 -12.393  -5.237  0.00  0.00    +0.241 C 
ATOM     32  O   LEU A  13     -35.066 -11.637  -4.303  0.00  0.00    -0.273 OA
ATOM     33  N   THR A  14     -35.368 -12.291  -6.415  0.00  0.00    -0.296 N 
ATOM     34  H   THR A  14     -35.155 -13.003  -7.142  0.00  0.00    +0.150 HD
BRANCH  33  35
ATOM     35  CA  THR A  14     -36.289 -11.207  -6.733  0.00  0.00    +0.164 C 
BRANCH  35  36
ATOM     36  C   THR A  14     -37.408 -10.988  -5.717  0.00  0.00    +0.229 C 
ATOM     37  O   THR A  14     -37.507  -9.894  -5.190  0.00  0.00    -0.286 OA
ENDBRANCH  35  36
BRANCH  35  38
ATOM     38  CB  THR A  14     -36.799 -11.328  -8.163  0.00  0.00    +0.136 C 
ATOM     39  CG2 THR A  14     -37.968 -10.318  -8.484  0.00  0.00    +0.034 C 
BRANCH  38  40
ATOM     40  OG1 THR A  14     -35.713 -11.097  -9.058  0.00  0.00    -0.382 OA
ATOM     41  HG1 THR A  14     -35.004 -11.769  -8.896  0.00  0.00    +0.210 HD
ENDBRANCH  38  40
ENDBRANCH  35  38
ENDBRANCH  33  35
ENDBRANCH  30  31
BRANCH  30  42
ATOM     42  CB  LEU A  13     -32.362 -12.808  -4.993  0.00  0.00    +0.029 C 
BRANCH  42  43
ATOM     43  CG  LEU A  13     -31.228 -13.769  -4.579  0.00  0.00    +0.002 C 
ATOM     44  CD2 LEU A  13     -31.401 -14.114  -3.159  0.00  0.00    +0.000 C 
ATOM     45  CD1 LEU A  13     -29.852 -13.139  -4.792  0.00  0.00    +0.000 C 
ENDBRANCH  42  43
ENDBRANCH  30  42
ENDBRANCH  28  30
ENDBRANCH  25  26
BRANCH  25  46
ATOM     46  CB  VAL A  12     -33.728 -17.705  -6.735  0.00  0.00    +0.027 C 
ATOM     47  CG2 VAL A  12     -34.040 -18.124  -5.353  0.00  0.00    +0.002 C 
ATOM     48  CG1 VAL A  12     -33.898 -18.933  -7.661  0.00  0.00    +0.002 C 
ENDBRANCH  25  46
ENDBRANCH  22  25
ENDBRANCH  20  21
BRANCH  20  49
ATOM     49  CB  GLU A  11     -34.623 -15.373 -11.550  0.00  0.00    +0.041 C 
BRANCH  49  50
ATOM     50  CG  GLU A  11     -34.382 -14.765 -12.923  0.00  0.00    +0.116 C 
BRANCH  50  51
ATOM     51  CD  GLU A  11     -34.554 -15.740 -14.065  0.00  0.00    +0.365 C 
ATOM     52  OE2 GLU A  11     -34.383 -16.952 -13.855  0.00  0.00    -0.246 OA
ATOM     53  OE1 GLU A  11     -34.797 -15.272 -15.195  0.00  0.00    -0.246 OA
ENDBRANCH  50  51
ENDBRANCH  49  50
ENDBRANCH  20  49
ENDBRANCH  18  20
ENDBRANCH  15  16
ENDBRANCH  13  15
ENDBRANCH  10  11
BRANCH  10  54
ATOM     54  CB  VAL A   9     -28.302 -16.653  -8.458  0.00  0.00    +0.027 C 
ATOM     55  CG2 VAL A   9     -28.101 -15.985  -7.118  0.00  0.00    +0.002 C 
ATOM     56  CG1 VAL A   9     -27.749 -18.109  -8.455  0.00  0.00    +0.002 C 
ENDBRANCH  10  54
ENDBRANCH   8  10
ENDBRANCH   5   6
BRANCH   5  57
ATOM     57  CB  THR A   8     -30.695 -19.140 -12.456  0.00  0.00    +0.137 C 
ATOM     58  CG2 THR A   8     -30.828 -19.678 -13.842  0.00  0.00    +0.034 C 
BRANCH  57  59
ATOM     59  OG1 THR A   8     -29.346 -19.312 -12.052  0.00  0.00    -0.382 OA
ATOM     60  HG1 THR A   8     -29.110 -20.273 -12.094  0.00  0.00    +0.210 HD
ENDBRANCH  57  59
ENDBRANCH   5  57
ENDBRANCH   3   5
BRANCH   1  61
ATOM     61  CA  GLY A   7     -29.012 -14.681 -13.797  0.00  0.00    +0.176 C 
BRANCH  61  64
ATOM     62  C   ALA A   6     -27.336 -15.550 -12.269  0.00  0.00    +0.241 C 
ATOM     63  O   ALA A   6     -27.939 -15.068 -11.310  0.00  0.00    -0.273 OA
ATOM     64  N   GLY A   7     -27.710 -15.327 -13.529  0.00  0.00    -0.295 N 
ATOM     65  H   GLY A   7     -27.091 -15.605 -14.317  0.00  0.00    +0.150 HD
BRANCH  62  66
ATOM     66  CA  ALA A   6     -26.063 -16.364 -12.046  0.00  0.00    +0.149 C 
ATOM     67  CB  ALA A   6     -24.864 -15.528 -12.293  0.00  0.00    +0.031 C 
BRANCH  66  70
ATOM     68  C   VAL A   5     -25.378 -18.632 -12.343  0.00  0.00    +0.241 C 
ATOM     69  O   VAL A   5     -25.250 -18.749 -11.118  0.00  0.00    -0.273 OA
ATOM     70  N   ALA A   6     -25.970 -17.566 -12.879  0.00  0.00    -0.297 N 
ATOM     71  H   ALA A   6     -26.350 -17.586 -13.847  0.00  0.00    +0.150 HD
BRANCH  68  72
ATOM     72  CA  VAL A   5     -25.094 -19.793 -13.286  0.00  0.00    +0.149 C 
BRANCH  72  75
ATOM     73  C   GLY A   4     -27.032 -20.344 -14.672  0.00  0.00    +0.243 C 
ATOM     74  O   GLY A   4     -27.555 -20.969 -13.758  0.00  0.00    -0.273 OA
ATOM     75  N   VAL A   5     -25.914 -19.662 -14.494  0.00  0.00    -0.297 N 
ATOM     76  H   VAL A   5     -25.604 -19.007 -15.240  0.00  0.00    +0.150 HD
BRANCH  73  77
ATOM     77  CA  GLY A   4     -27.672 -20.282 -16.064  0.00  0.00    +0.176 C 
BRANCH  77  80
ATOM     78  C   TYR A   3     -27.817 -17.891 -16.322  0.00  0.00    +0.241 C 
ATOM     79  O   TYR A   3     -28.342 -17.803 -15.210  0.00  0.00    -0.273 OA
ATOM     80  N   GLY A   4     -27.360 -19.045 -16.789  0.00  0.00    -0.295 N 
ATOM     81  H   GLY A   4     -26.788 -19.073 -17.657  0.00  0.00    +0.150 HD
BRANCH  78  82
ATOM     82  CA  TYR A   3     -27.663 -16.642 -17.208  0.00  0.00    +0.153 C 
BRANCH  82  85
ATOM     83  C   CYS A   2     -25.321 -16.330 -16.731  0.00  0.00    +0.242 C 
ATOM     84  O   CYS A   2     -25.569 -16.125 -15.571  0.00  0.00    -0.273 OA
ATOM     85  N   TYR A   3     -26.269 -16.522 -17.640  0.00  0.00    -0.297 N 
ATOM     86  H   TYR A   3     -26.024 -16.587 -18.649  0.00  0.00    +0.150 HD
BRANCH  83  87
ATOM     87  CA  CYS A   2     -23.896 -16.338 -17.221  0.00  0.00    +0.160 C 
BRANCH  87  90
ATOM     88  C   TYR A   1     -23.960 -18.620 -18.080  0.00  0.00    +0.239 C 
ATOM     89  O   TYR A   1     -24.233 -19.045 -16.969  0.00  0.00    -0.274 OA
ATOM     90  N   CYS A   2     -23.755 -17.329 -18.304  0.00  0.00    -0.296 N 
ATOM     91  H   CYS A   2     -23.491 -17.011 -19.258  0.00  0.00    +0.150 HD
BRANCH  88  92
ATOM     92  CA  TYR A   1     -23.824 -19.589 -19.280  0.00  0.00    +0.149 C 
BRANCH  92  93
ATOM     93  N   TYR A   1     -24.411 -19.095 -20.518  0.00  0.00    -0.238 NA
ATOM     94  H   TYR A   1     -23.814 -18.996 -21.363  0.00  0.00    +0.142 HD
ENDBRANCH  92  93
BRANCH  92  95
ATOM     95  CB  TYR A   1     -22.351 -19.926 -19.521  0.00  0.00    +0.053 C 
BRANCH  95  96
ATOM     96  CG  TYR A   1     -21.593 -20.280 -18.275  0.00  0.00    -0.020 A 
ATOM     97  CD2 TYR A   1     -20.811 -19.334 -17.638  0.00  0.00    -0.001 A 
ATOM     98  CE2 TYR A   1     -20.086 -19.650 -16.480  0.00  0.00    +0.036 A 
ATOM     99  CZ  TYR A   1     -20.136 -20.925 -15.954  0.00  0.00    +0.134 A 
ATOM    100  CE1 TYR A   1     -20.874 -21.905 -16.581  0.00  0.00    +0.036 A 
ATOM    101  CD1 TYR A   1     -21.634 -21.570 -17.742  0.00  0.00    -0.001 A 
BRANCH  99 102
ATOM    102  OH  TYR A   1     -19.438 -21.200 -14.789  0.00  0.00    -0.506 OA
ATOM    103  HH  TYR A   1     -19.572 -22.149 -14.541  0.00  0.00    +0.292 HD
ENDBRANCH  99 102
ENDBRANCH  95  96
ENDBRANCH  92  95
ENDBRANCH  88  92
ENDBRANCH  87  90
BRANCH  87 104
ATOM    104  CB  CYS A   2     -23.557 -14.945 -17.752  0.00  0.00    +0.098 C 
ATOM    105  SG  CYS A   2     -21.787 -14.727 -18.007  0.00  0.00    -0.080 S 
ENDBRANCH  87 104
ENDBRANCH  83  87
ENDBRANCH  82  85
BRANCH  82 106
ATOM    106  CB  TYR A   3     -28.629 -16.737 -18.406  0.00  0.00    +0.055 C 
BRANCH 106 107
ATOM    107  CG  TYR A   3     -29.974 -17.139 -17.905  0.00  0.00    -0.020 A 
ATOM    108  CD2 TYR A   3     -30.691 -16.273 -17.074  0.00  0.00    -0.001 A 
ATOM    109  CE2 TYR A   3     -31.845 -16.656 -16.463  0.00  0.00    +0.036 A 
ATOM    110  CZ  TYR A   3     -32.254 -17.964 -16.578  0.00  0.00    +0.134 A 
ATOM    111  CE1 TYR A   3     -31.562 -18.857 -17.380  0.00  0.00    +0.036 A 
ATOM    112  CD1 TYR A   3     -30.363 -18.468 -17.955  0.00  0.00    -0.001 A 
BRANCH 110 113
ATOM    113  OH  TYR A   3     -33.392 -18.366 -15.929  0.00  0.00    -0.506 OA
ATOM    114  HH  TYR A   3     -33.282 -18.225 -14.955  0.00  0.00    +0.292 HD
ENDBRANCH 110 113
ENDBRANCH 106 107
ENDBRANCH  82 106
ENDBRANCH  78  82
ENDBRANCH  77  80
ENDBRANCH  73  77
ENDBRANCH  72  75
BRANCH  72 115
ATOM    115  CB  VAL A   5     -23.610 -19.885 -13.738  0.00  0.00    +0.027 C 
ATOM    116  CG2 VAL A   5     -22.675 -18.942 -13.041  0.00  0.00    +0.002 C 
ATOM    117  CG1 VAL A   5     -23.158 -21.337 -13.775  0.00  0.00    +0.002 C 
ENDBRANCH  72 115
ENDBRANCH  68  72
ENDBRANCH  66  70
ENDBRANCH  62  66
ENDBRANCH  61  64
ENDBRANCH   1  61
TORSDOF 47
REMARK  Name = ../refined-set-2016/4ea2/4ea2_pocket.pdb
REMARK  233 active torsions:
REMARK  status: ('A' for Active; 'I' for Inactive)
REMARK    1  A    between atoms: _1  and  _3
REMARK    2  A    between atoms: _3  and  _4
REMARK    3  A    between atoms: _3  and  _6
REMARK    4  A    between atoms: _6  and  _7
REMARK    5  A    between atoms: _10  and  _12
REMARK    6  A    between atoms: _12  and  _13
REMARK    7  A    between atoms: _12  and  _15
REMARK    8  A    between atoms: _15  and  _16
REMARK    9  A    between atoms: _16  and  _17
REMARK   10  A    between atoms: _19  and  _21
REMARK   11  A    between atoms: _21  and  _22
REMARK   12  A    between atoms: _21  and  _24
REMARK   13  A    between atoms: _24  and  _25
REMARK   14  A    between atoms: _30  and  _32
REMARK   15  A    between atoms: _32  and  _33
REMARK   16  A    between atoms: _32  and  _35
REMARK   17  A    between atoms: _35  and  _36
REMARK   18  A    between atoms: _38  and  _40
REMARK   19  A    between atoms: _40  and  _41
REMARK   20  A    between atoms: _40  and  _43
REMARK   21  A    between atoms: _43  and  _44
REMARK   22  A    between atoms: _46  and  _48
REMARK   23  A    between atoms: _48  and  _49
REMARK   24  A    between atoms: _48  and  _51
REMARK   25  A    between atoms: _51  and  _52
REMARK   26  A    between atoms: _58  and  _60
REMARK   27  A    between atoms: _60  and  _61
REMARK   28  A    between atoms: _64  and  _66
REMARK   29  A    between atoms: _66  and  _67
REMARK   30  A    between atoms: _66  and  _69
REMARK   31  A    between atoms: _69  and  _70
REMARK   32  A    between atoms: _76  and  _78
REMARK   33  A    between atoms: _78  and  _79
REMARK   34  A    between atoms: _78  and  _81
REMARK   35  A    between atoms: _84  and  _86
REMARK   36  A    between atoms: _86  and  _87
REMARK   37  A    between atoms: _86  and  _89
REMARK   38  A    between atoms: _89  and  _90
REMARK   39  A    between atoms: _93  and  _95
REMARK   40  A    between atoms: _95  and  _96
REMARK   41  A    between atoms: _95  and  _98
REMARK   42  A    between atoms: _98  and  _99
REMARK   43  A    between atoms: _104  and  _105
REMARK   44  A    between atoms: _107  and  _109
REMARK   45  A    between atoms: _109  and  _110
REMARK   46  A    between atoms: _113  and  _115
REMARK   47  A    between atoms: _115  and  _116
REMARK   48  A    between atoms: _115  and  _118
REMARK   49  A    between atoms: _121  and  _123
REMARK   50  A    between atoms: _123  and  _124
REMARK   51  A    between atoms: _123  and  _126
REMARK   52  A    between atoms: _128  and  _130
REMARK   53  A    between atoms: _130  and  _131
REMARK   54  A    between atoms: _130  and  _133
REMARK   55  A    between atoms: _133  and  _134
REMARK   56  A    between atoms: _134  and  _135
REMARK   57  A    between atoms: _135  and  _136
REMARK   58  A    between atoms: _145  and  _147
REMARK   59  A    between atoms: _147  and  _148
REMARK   60  A    between atoms: _147  and  _150
REMARK   61  A    between atoms: _150  and  _151
REMARK   62  A    between atoms: _151  and  _152
REMARK   63  A    between atoms: _152  and  _153
REMARK   64  A    between atoms: _153  and  _154
REMARK   65  A    between atoms: _158  and  _160
REMARK   66  A    between atoms: _160  and  _161
REMARK   67  A    between atoms: _160  and  _163
REMARK   68  A    between atoms: _163  and  _164
REMARK   69  A    between atoms: _167  and  _169
REMARK   70  A    between atoms: _169  and  _170
REMARK   71  A    between atoms: _169  and  _172
REMARK   72  A    between atoms: _172  and  _173
REMARK   73  A    between atoms: _176  and  _178
REMARK   74  A    between atoms: _178  and  _179
REMARK   75  A    between atoms: _178  and  _181
REMARK   76  A    between atoms: _181  and  _182
REMARK   77  A    between atoms: _185  and  _187
REMARK   78  A    between atoms: _187  and  _188
REMARK   79  A    between atoms: _187  and  _190
REMARK   80  A    between atoms: _190  and  _191
REMARK   81  A    between atoms: _197  and  _199
REMARK   82  A    between atoms: _199  and  _200
REMARK   83  A    between atoms: _199  and  _202
REMARK   84  A    between atoms: _202  and  _203
REMARK   85  A    between atoms: _206  and  _208
REMARK   86  A    between atoms: _208  and  _209
REMARK   87  A    between atoms: _208  and  _211
REMARK   88  A    between atoms: _211  and  _212
REMARK   89  A    between atoms: _215  and  _217
REMARK   90  A    between atoms: _217  and  _218
REMARK   91  A    between atoms: _217  and  _220
REMARK   92  A    between atoms: _223  and  _225
REMARK   93  A    between atoms: _225  and  _226
REMARK   94  A    between atoms: _225  and  _228
REMARK   95  A    between atoms: _228  and  _229
REMARK   96  A    between atoms: _234  and  _235
REMARK   97  A    between atoms: _237  and  _239
REMARK   98  A    between atoms: _239  and  _240
REMARK   99  A    between atoms: _239  and  _242
REMARK  100  A    between atoms: _244  and  _246
REMARK  101  A    between atoms: _246  and  _247
REMARK  102  A    between atoms: _246  and  _249
REMARK  103  A    between atoms: _249  and  _250
REMARK  104  A    between atoms: _255  and  _256
REMARK  105  A    between atoms: _258  and  _260
REMARK  106  A    between atoms: _260  and  _261
REMARK  107  A    between atoms: _263  and  _265
REMARK  108  A    between atoms: _265  and  _266
REMARK  109  A    between atoms: _265  and  _268
REMARK  110  A    between atoms: _271  and  _273
REMARK  111  A    between atoms: _273  and  _274
REMARK  112  A    between atoms: _277  and  _279
REMARK  113  A    between atoms: _279  and  _280
REMARK  114  A    between atoms: _282  and  _284
REMARK  115  A    between atoms: _284  and  _285
REMARK  116  A    between atoms: _284  and  _287
REMARK  117  A    between atoms: _287  and  _288
REMARK  118  A    between atoms: _291  and  _293
REMARK  119  A    between atoms: _293  and  _294
REMARK  120  A    between atoms: _293  and  _296
REMARK  121  A    between atoms: _299  and  _301
REMARK  122  A    between atoms: _301  and  _302
REMARK  123  A    between atoms: _304  and  _306
REMARK  124  A    between atoms: _306  and  _307
REMARK  125  A    between atoms: _306  and  _309
REMARK  126  A    between atoms: _309  and  _310
REMARK  127  A    between atoms: _310  and  _311
REMARK  128  A    between atoms: _314  and  _316
REMARK  129  A    between atoms: _316  and  _317
REMARK  130  A    between atoms: _316  and  _319
REMARK  131  A    between atoms: _322  and  _324
REMARK  132  A    between atoms: _324  and  _325
REMARK  133  A    between atoms: _324  and  _327
REMARK  134  A    between atoms: _327  and  _328
REMARK  135  A    between atoms: _331  and  _333
REMARK  136  A    between atoms: _333  and  _334
REMARK  137  A    between atoms: _333  and  _336
REMARK  138  A    between atoms: _336  and  _337
REMARK  139  A    between atoms: _340  and  _342
REMARK  140  A    between atoms: _342  and  _343
REMARK  141  A    between atoms: _342  and  _345
REMARK  142  A    between atoms: _345  and  _346
REMARK  143  A    between atoms: _349  and  _351
REMARK  144  A    between atoms: _351  and  _352
REMARK  145  A    between atoms: _351  and  _354
REMARK  146  A    between atoms: _357  and  _359
REMARK  147  A    between atoms: _359  and  _360
REMARK  148  A    between atoms: _363  and  _365
REMARK  149  A    between atoms: _365  and  _366
REMARK  150  A    between atoms: _365  and  _368
REMARK  151  A    between atoms: _368  and  _369
REMARK  152  A    between atoms: _369  and  _370
REMARK  153  A    between atoms: _370  and  _371
REMARK  154  A    between atoms: _380  and  _382
REMARK  155  A    between atoms: _382  and  _383
REMARK  156  A    between atoms: _382  and  _385
REMARK  157  A    between atoms: _385  and  _386
REMARK  158  A    between atoms: _386  and  _387
REMARK  159  A    between atoms: _387  and  _388
REMARK  160  A    between atoms: _397  and  _399
REMARK  161  A    between atoms: _399  and  _400
REMARK  162  A    between atoms: _399  and  _402
REMARK  163  A    between atoms: _402  and  _403
REMARK  164  A    between atoms: _406  and  _408
REMARK  165  A    between atoms: _408  and  _409
REMARK  166  A    between atoms: _411  and  _413
REMARK  167  A    between atoms: _413  and  _414
REMARK  168  A    between atoms: _413  and  _416
REMARK  169  A    between atoms: _416  and  _417
REMARK  170  A    between atoms: _417  and  _418
REMARK  171  A    between atoms: _421  and  _423
REMARK  172  A    between atoms: _423  and  _424
REMARK  173  A    between atoms: _423  and  _426
REMARK  174  A    between atoms: _426  and  _427
REMARK  175  A    between atoms: _429  and  _431
REMARK  176  A    between atoms: _431  and  _432
REMARK  177  A    between atoms: _431  and  _434
REMARK  178  A    between atoms: _434  and  _435
REMARK  179  A    between atoms: _438  and  _440
REMARK  180  A    between atoms: _440  and  _441
REMARK  181  A    between atoms: _440  and  _443
REMARK  182  A    between atoms: _443  and  _444
REMARK  183  A    between atoms: _444  and  _445
REMARK  184  A    between atoms: _450  and  _452
REMARK  185  A    between atoms: _452  and  _453
REMARK  186  A    between atoms: _452  and  _455
REMARK  187  A    between atoms: _455  and  _456
REMARK  188  A    between atoms: _459  and  _461
REMARK  189  A    between atoms: _461  and  _462
REMARK  190  A    between atoms: _461  and  _464
REMARK  191  A    between atoms: _464  and  _465
REMARK  192  A    between atoms: _468  and  _470
REMARK  193  A    between atoms: _470  and  _471
REMARK  194  A    between atoms: _470  and  _473
REMARK  195  A    between atoms: _473  and  _474
REMARK  196  A    between atoms: _479  and  _481
REMARK  197  A    between atoms: _481  and  _482
REMARK  198  A    between atoms: _481  and  _484
REMARK  199  A    between atoms: _484  and  _485
REMARK  200  A    between atoms: _488  and  _490
REMARK  201  A    between atoms: _490  and  _491
REMARK  202  A    between atoms: _490  and  _493
REMARK  203  A    between atoms: _493  and  _494
REMARK  204  A    between atoms: _494  and  _495
REMARK  205  A    between atoms: _495  and  _496
REMARK  206  A    between atoms: _505  and  _507
REMARK  207  A    between atoms: _507  and  _508
REMARK  208  A    between atoms: _507  and  _510
REMARK  209  A    between atoms: _510  and  _511
REMARK  210  A    between atoms: _514  and  _516
REMARK  211  A    between atoms: _516  and  _517
REMARK  212  A    between atoms: _516  and  _519
REMARK  213  A    between atoms: _522  and  _524
REMARK  214  A    between atoms: _524  and  _525
REMARK  215  A    between atoms: _524  and  _527
REMARK  216  A    between atoms: _527  and  _528
REMARK  217  A    between atoms: _534  and  _536
REMARK  218  A    between atoms: _536  and  _537
REMARK  219  A    between atoms: _536  and  _539
REMARK  220  A    between atoms: _539  and  _540
REMARK  221  A    between atoms: _543  and  _545
REMARK  222  A    between atoms: _545  and  _546
REMARK  223  A    between atoms: _549  and  _551
REMARK  224  A    between atoms: _551  and  _552
REMARK  225  A    between atoms: _555  and  _557
REMARK  226  A    between atoms: _557  and  _558
REMARK  227  A    between atoms: _557  and  _560
REMARK  228  A    between atoms: _560  and  _561
REMARK  229  A    between atoms: _566  and  _567
REMARK  230  A    between atoms: _569  and  _571
REMARK  231  A    between atoms: _571  and  _572
REMARK  232  A    between atoms: _571  and  _574
REMARK  233  A    between atoms: _574  and  _575
REMARK                            x       y       z     vdW  Elec       q    Type
REMARK                         _______ _______ _______ _____ _____    ______ ____
ROOT
ATOM      1  CA  LEU A   1     -35.546  -8.019  -2.556  0.00  0.00    +0.133 C 
ENDROOT
BRANCH   1   2
ATOM      2  N   LEU A   1     -36.114  -9.367  -2.469  0.00  0.00    -0.239 NA
ATOM      3  H   LEU A   1     -36.116  -9.966  -3.319  0.00  0.00    +0.142 HD
ENDBRANCH   1   2
BRANCH   1   4
ATOM      4  C   LEU A   1     -36.541  -6.929  -3.061  0.00  0.00    +0.224 C 
ATOM      5  O   LEU A   1     -36.159  -5.767  -3.206  0.00  0.00    -0.287 OA
ENDBRANCH   1   4
BRANCH   1   6
ATOM      6  CB  LEU A   1     -34.340  -8.058  -3.520  0.00  0.00    +0.025 C 
BRANCH   6   7
ATOM      7  CG  LEU A   1     -33.156  -8.915  -3.047  0.00  0.00    +0.002 C 
ATOM      8  CD2 LEU A   1     -32.695  -8.525  -1.669  0.00  0.00    +0.000 C 
ATOM      9  CD1 LEU A   1     -31.999  -8.873  -4.055  0.00  0.00    +0.000 C 
ENDBRANCH   6   7
ENDBRANCH   1   6
TORSDOF 4
REMARK  Name = ../refined-set-2016/4ea2/4ea2_pocket.pdb
REMARK  233 active torsions:
REMARK  status: ('A' for Active; 'I' for Inactive)
REMARK    1  A    between atoms: _1  and  _3
REMARK    2  A    between atoms: _3  and  _4
REMARK    3  A    between atoms: _3  and  _6
REMARK    4  A    between atoms: _6  and  _7
REMARK    5  A    between atoms: _10  and  _12
REMARK    6  A    between atoms: _12  and  _13
REMARK    7  A    between atoms: _12  and  _15
REMARK    8  A    between atoms: _15  and  _16
REMARK    9  A    between atoms: _16  and  _17
REMARK   10  A    between atoms: _19  and  _21
REMARK   11  A    between atoms: _21  and  _22
REMARK   12  A    between atoms: _21  and  _24
REMARK   13  A    between atoms: _24  and  _25
REMARK   14  A    between atoms: _30  and  _32
REMARK   15  A    between atoms: _32  and  _33
REMARK   16  A    between atoms: _32  and  _35
REMARK   17  A    between atoms: _35  and  _36
REMARK   18  A    between atoms: _38  and  _40
REMARK   19  A    between atoms: _40  and  _41
REMARK   20  A    between atoms: _40  and  _43
REMARK   21  A    between atoms: _43  and  _44
REMARK   22  A    between atoms: _46  and  _48
REMARK   23  A    between atoms: _48  and  _49
REMARK   24  A    between atoms: _48  and  _51
REMARK   25  A    between atoms: _51  and  _52
REMARK   26  A    between atoms: _58  and  _60
REMARK   27  A    between atoms: _60  and  _61
REMARK   28  A    between atoms: _64  and  _66
REMARK   29  A    between atoms: _66  and  _67
REMARK   30  A    between atoms: _66  and  _69
REMARK   31  A    between atoms: _69  and  _70
REMARK   32  A    between atoms: _76  and  _78
REMARK   33  A    between atoms: _78  and  _79
REMARK   34  A    between atoms: _78  and  _81
REMARK   35  A    between atoms: _84  and  _86
REMARK   36  A    between atoms: _86  and  _87
REMARK   37  A    between atoms: _86  and  _89
REMARK   38  A    between atoms: _89  and  _90
REMARK   39  A    between atoms: _93  and  _95
REMARK   40  A    between atoms: _95  and  _96
REMARK   41  A    between atoms: _95  and  _98
REMARK   42  A    between atoms: _98  and  _99
REMARK   43  A    between atoms: _104  and  _105
REMARK   44  A    between atoms: _107  and  _109
REMARK   45  A    between atoms: _109  and  _110
REMARK   46  A    between atoms: _113  and  _115
REMARK   47  A    between atoms: _115  and  _116
REMARK   48  A    between atoms: _115  and  _118
REMARK   49  A    between atoms: _121  and  _123
REMARK   50  A    between atoms: _123  and  _124
REMARK   51  A    between atoms: _123  and  _126
REMARK   52  A    between atoms: _128  and  _130
REMARK   53  A    between atoms: _130  and  _131
REMARK   54  A    between atoms: _130  and  _133
REMARK   55  A    between atoms: _133  and  _134
REMARK   56  A    between atoms: _134  and  _135
REMARK   57  A    between atoms: _135  and  _136
REMARK   58  A    between atoms: _145  and  _147
REMARK   59  A    between atoms: _147  and  _148
REMARK   60  A    between atoms: _147  and  _150
REMARK   61  A    between atoms: _150  and  _151
REMARK   62  A    between atoms: _151  and  _152
REMARK   63  A    between atoms: _152  and  _153
REMARK   64  A    between atoms: _153  and  _154
REMARK   65  A    between atoms: _158  and  _160
REMARK   66  A    between atoms: _160  and  _161
REMARK   67  A    between atoms: _160  and  _163
REMARK   68  A    between atoms: _163  and  _164
REMARK   69  A    between atoms: _167  and  _169
REMARK   70  A    between atoms: _169  and  _170
REMARK   71  A    between atoms: _169  and  _172
REMARK   72  A    between atoms: _172  and  _173
REMARK   73  A    between atoms: _176  and  _178
REMARK   74  A    between atoms: _178  and  _179
REMARK   75  A    between atoms: _178  and  _181
REMARK   76  A    between atoms: _181  and  _182
REMARK   77  A    between atoms: _185  and  _187
REMARK   78  A    between atoms: _187  and  _188
REMARK   79  A    between atoms: _187  and  _190
REMARK   80  A    between atoms: _190  and  _191
REMARK   81  A    between atoms: _197  and  _199
REMARK   82  A    between atoms: _199  and  _200
REMARK   83  A    between atoms: _199  and  _202
REMARK   84  A    between atoms: _202  and  _203
REMARK   85  A    between atoms: _206  and  _208
REMARK   86  A    between atoms: _208  and  _209
REMARK   87  A    between atoms: _208  and  _211
REMARK   88  A    between atoms: _211  and  _212
REMARK   89  A    between atoms: _215  and  _217
REMARK   90  A    between atoms: _217  and  _218
REMARK   91  A    between atoms: _217  and  _220
REMARK   92  A    between atoms: _223  and  _225
REMARK   93  A    between atoms: _225  and  _226
REMARK   94  A    between atoms: _225  and  _228
REMARK   95  A    between atoms: _228  and  _229
REMARK   96  A    between atoms: _234  and  _235
REMARK   97  A    between atoms: _237  and  _239
REMARK   98  A    between atoms: _239  and  _240
REMARK   99  A    between atoms: _239  and  _242
REMARK  100  A    between atoms: _244  and  _246
REMARK  101  A    between atoms: _246  and  _247
REMARK  102  A    between atoms: _246  and  _249
REMARK  103  A    between atoms: _249  and  _250
REMARK  104  A    between atoms: _255  and  _256
REMARK  105  A    between atoms: _258  and  _260
REMARK  106  A    between atoms: _260  and  _261
REMARK  107  A    between atoms: _263  and  _265
REMARK  108  A    between atoms: _265  and  _266
REMARK  109  A    between atoms: _265  and  _268
REMARK  110  A    between atoms: _271  and  _273
REMARK  111  A    between atoms: _273  and  _274
REMARK  112  A    between atoms: _277  and  _279
REMARK  113  A    between atoms: _279  and  _280
REMARK  114  A    between atoms: _282  and  _284
REMARK  115  A    between atoms: _284  and  _285
REMARK  116  A    between atoms: _284  and  _287
REMARK  117  A    between atoms: _287  and  _288
REMARK  118  A    between atoms: _291  and  _293
REMARK  119  A    between atoms: _293  and  _294
REMARK  120  A    between atoms: _293  and  _296
REMARK  121  A    between atoms: _299  and  _301
REMARK  122  A    between atoms: _301  and  _302
REMARK  123  A    between atoms: _304  and  _306
REMARK  124  A    between atoms: _306  and  _307
REMARK  125  A    between atoms: _306  and  _309
REMARK  126  A    between atoms: _309  and  _310
REMARK  127  A    between atoms: _310  and  _311
REMARK  128  A    between atoms: _314  and  _316
REMARK  129  A    between atoms: _316  and  _317
REMARK  130  A    between atoms: _316  and  _319
REMARK  131  A    between atoms: _322  and  _324
REMARK  132  A    between atoms: _324  and  _325
REMARK  133  A    between atoms: _324  and  _327
REMARK  134  A    between atoms: _327  and  _328
REMARK  135  A    between atoms: _331  and  _333
REMARK  136  A    between atoms: _333  and  _334
REMARK  137  A    between atoms: _333  and  _336
REMARK  138  A    between atoms: _336  and  _337
REMARK  139  A    between atoms: _340  and  _342
REMARK  140  A    between atoms: _342  and  _343
REMARK  141  A    between atoms: _342  and  _345
REMARK  142  A    between atoms: _345  and  _346
REMARK  143  A    between atoms: _349  and  _351
REMARK  144  A    between atoms: _351  and  _352
REMARK  145  A    between atoms: _351  and  _354
REMARK  146  A    between atoms: _357  and  _359
REMARK  147  A    between atoms: _359  and  _360
REMARK  148  A    between atoms: _363  and  _365
REMARK  149  A    between atoms: _365  and  _366
REMARK  150  A    between atoms: _365  and  _368
REMARK  151  A    between atoms: _368  and  _369
REMARK  152  A    between atoms: _369  and  _370
REMARK  153  A    between atoms: _370  and  _371
REMARK  154  A    between atoms: _380  and  _382
REMARK  155  A    between atoms: _382  and  _383
REMARK  156  A    between atoms: _382  and  _385
REMARK  157  A    between atoms: _385  and  _386
REMARK  158  A    between atoms: _386  and  _387
REMARK  159  A    between atoms: _387  and  _388
REMARK  160  A    between atoms: _397  and  _399
REMARK  161  A    between atoms: _399  and  _400
REMARK  162  A    between atoms: _399  and  _402
REMARK  163  A    between atoms: _402  and  _403
REMARK  164  A    between atoms: _406  and  _408
REMARK  165  A    between atoms: _408  and  _409
REMARK  166  A    between atoms: _411  and  _413
REMARK  167  A    between atoms: _413  and  _414
REMARK  168  A    between atoms: _413  and  _416
REMARK  169  A    between atoms: _416  and  _417
REMARK  170  A    between atoms: _417  and  _418
REMARK  171  A    between atoms: _421  and  _423
REMARK  172  A    between atoms: _423  and  _424
REMARK  173  A    between atoms: _423  and  _426
REMARK  174  A    between atoms: _426  and  _427
REMARK  175  A    between atoms: _429  and  _431
REMARK  176  A    between atoms: _431  and  _432
REMARK  177  A    between atoms: _431  and  _434
REMARK  178  A    between atoms: _434  and  _435
REMARK  179  A    between atoms: _438  and  _440
REMARK  180  A    between atoms: _440  and  _441
REMARK  181  A    between atoms: _440  and  _443
REMARK  182  A    between atoms: _443  and  _444
REMARK  183  A    between atoms: _444  and  _445
REMARK  184  A    between atoms: _450  and  _452
REMARK  185  A    between atoms: _452  and  _453
REMARK  186  A    between atoms: _452  and  _455
REMARK  187  A    between atoms: _455  and  _456
REMARK  188  A    between atoms: _459  and  _461
REMARK  189  A    between atoms: _461  and  _462
REMARK  190  A    between atoms: _461  and  _464
REMARK  191  A    between atoms: _464  and  _465
REMARK  192  A    between atoms: _468  and  _470
REMARK  193  A    between atoms: _470  and  _471
REMARK  194  A    between atoms: _470  and  _473
REMARK  195  A    between atoms: _473  and  _474
REMARK  196  A    between atoms: _479  and  _481
REMARK  197  A    between atoms: _481  and  _482
REMARK  198  A    between atoms: _481  and  _484
REMARK  199  A    between atoms: _484  and  _485
REMARK  200  A    between atoms: _488  and  _490
REMARK  201  A    between atoms: _490  and  _491
REMARK  202  A    between atoms: _490  and  _493
REMARK  203  A    between atoms: _493  and  _494
REMARK  204  A    between atoms: _494  and  _495
REMARK  205  A    between atoms: _495  and  _496
REMARK  206  A    between atoms: _505  and  _507
REMARK  207  A    between atoms: _507  and  _508
REMARK  208  A    between atoms: _507  and  _510
REMARK  209  A    between atoms: _510  and  _511
REMARK  210  A    between atoms: _514  and  _516
REMARK  211  A    between atoms: _516  and  _517
REMARK  212  A    between atoms: _516  and  _519
REMARK  213  A    between atoms: _522  and  _524
REMARK  214  A    between atoms: _524  and  _525
REMARK  215  A    between atoms: _524  and  _527
REMARK  216  A    between atoms: _527  and  _528
REMARK  217  A    between atoms: _534  and  _536
REMARK  218  A    between atoms: _536  and  _537
REMARK  219  A    between atoms: _536  and  _539
REMARK  220  A    between atoms: _539  and  _540
REMARK  221  A    between atoms: _543  and  _545
REMARK  222  A    between atoms: _545  and  _546
REMARK  223  A    between atoms: _549  and  _551
REMARK  224  A    between atoms: _551  and  _552
REMARK  225  A    between atoms: _555  and  _557
REMARK  226  A    between atoms: _557  and  _558
REMARK  227  A    between atoms: _557  and  _560
REMARK  228  A    between atoms: _560  and  _561
REMARK  229  A    between atoms: _566  and  _567
REMARK  230  A    between atoms: _569  and  _571
REMARK  231  A    between atoms: _571  and  _572
REMARK  232  A    between atoms: _571  and  _574
REMARK  233  A    between atoms: _574  and  _575
REMARK                            x       y       z     vdW  Elec       q    Type
REMARK                         _______ _______ _______ _____ _____    ______ ____
ROOT
ATOM      1  CA  GLU A   7     -25.213 -11.970 -15.188  0.00  0.00    +0.149 C 
ENDROOT
BRANCH   1   4
ATOM      2  C   GLY A   6     -25.655 -11.874 -12.781  0.00  0.00    +0.243 C 
ATOM      3  O   GLY A   6     -24.520 -12.277 -12.530  0.00  0.00    -0.273 OA
ATOM      4  N   GLU A   7     -26.066 -11.671 -14.022  0.00  0.00    -0.297 N 
ATOM      5  H   GLU A   7     -27.020 -11.289 -14.181  0.00  0.00    +0.150 HD
BRANCH   2   6
ATOM      6  CA  GLY A   6     -26.627 -11.526 -11.655  0.00  0.00    +0.176 C 
BRANCH   6   8
ATOM      7  C   LEU A   5     -26.621  -9.098 -11.990  0.00  0.00    +0.241 C 
ATOM      8  N   GLY A   6     -27.308 -10.225 -11.791  0.00  0.00    -0.295 N 
ATOM      9  H   GLY A   6     -28.345 -10.185 -11.731  0.00  0.00    +0.150 HD
ATOM     10  O   LEU A   5     -25.401  -9.078 -12.056  0.00  0.00    -0.273 OA
BRANCH   7  11
ATOM     11  CA  LEU A   5     -27.431  -7.810 -12.232  0.00  0.00    +0.149 C 
BRANCH  11  13
ATOM     12  C   ARG A   4     -28.002  -8.372 -14.489  0.00  0.00    +0.241 C 
ATOM     13  N   LEU A   5     -28.398  -8.017 -13.267  0.00  0.00    -0.297 N 
ATOM     14  H   LEU A   5     -29.410  -7.890 -13.065  0.00  0.00    +0.150 HD
ATOM     15  O   ARG A   4     -26.811  -8.408 -14.820  0.00  0.00    -0.273 OA
BRANCH  12  16
ATOM     16  CA  ARG A   4     -29.080  -8.684 -15.501  0.00  0.00    +0.149 C 
BRANCH  16  19
ATOM     17  C   ARG A   3     -30.055 -10.682 -14.531  0.00  0.00    +0.241 C 
ATOM     18  O   ARG A   3     -28.942 -11.230 -14.460  0.00  0.00    -0.273 OA
ATOM     19  N   ARG A   4     -30.207  -9.432 -14.965  0.00  0.00    -0.297 N 
ATOM     20  H   ARG A   4     -31.145  -8.984 -14.920  0.00  0.00    +0.150 HD
BRANCH  17  21
ATOM     21  CA  ARG A   3     -31.247 -11.297 -13.816  0.00  0.00    +0.149 C 
BRANCH  21  24
ATOM     22  C   ALA A   2     -31.372  -9.880 -11.837  0.00  0.00    +0.241 C 
ATOM     23  O   ALA A   2     -30.254 -10.188 -11.457  0.00  0.00    -0.273 OA
ATOM     24  N   ARG A   3     -31.907 -10.328 -12.960  0.00  0.00    -0.297 N 
ATOM     25  H   ARG A   3     -32.842  -9.970 -13.243  0.00  0.00    +0.150 HD
BRANCH  22  26
ATOM     26  CA  ALA A   2     -32.184  -8.844 -11.064  0.00  0.00    +0.149 C 
ATOM     27  CB  ALA A   2     -33.181  -9.546 -10.097  0.00  0.00    +0.031 C 
BRANCH  26  29
ATOM     28  C   VAL A   1     -32.260  -7.069 -12.774  0.00  0.00    +0.238 C 
ATOM     29  N   ALA A   2     -32.891  -7.937 -11.978  0.00  0.00    -0.297 N 
ATOM     30  H   ALA A   2     -33.930  -7.972 -12.007  0.00  0.00    +0.150 HD
ATOM     31  O   VAL A   1     -31.034  -7.029 -12.915  0.00  0.00    -0.274 OA
BRANCH  28  32
ATOM     32  CA  VAL A   1     -33.171  -6.198 -13.656  0.00  0.00    +0.145 C 
BRANCH  32  33
ATOM     33  CB  VAL A   1     -33.687  -4.934 -12.881  0.00  0.00    +0.025 C 
ATOM     34  CG2 VAL A   1     -32.586  -4.338 -12.069  0.00  0.00    +0.002 C 
ATOM     35  CG1 VAL A   1     -34.165  -3.844 -13.893  0.00  0.00    +0.002 C 
ENDBRANCH  32  33
BRANCH  32  36
ATOM     36  N   VAL A   1     -34.279  -7.029 -14.157  0.00  0.00    -0.238 NA
ATOM     37  H   VAL A   1     -35.245  -6.870 -13.805  0.00  0.00    +0.142 HD
ENDBRANCH  32  36
ENDBRANCH  28  32
ENDBRANCH  26  29
ENDBRANCH  22  26
ENDBRANCH  21  24
BRANCH  21  38
ATOM     38  CB  ARG A   3     -32.249 -11.902 -14.814  0.00  0.00    +0.033 C 
BRANCH  38  39
ATOM     39  CG  ARG A   3     -31.632 -12.667 -15.956  0.00  0.00    +0.045 C 
BRANCH  39  40
ATOM     40  CD  ARG A   3     -32.671 -12.900 -17.108  0.00  0.00    +0.174 C 
BRANCH  40  41
ATOM     41  NE  ARG A   3     -33.963 -13.237 -16.513  0.00  0.00    -0.265 N 
ATOM     42  HE  ARG A   3     -34.015 -14.107 -15.946  0.00  0.00    +0.259 HD
ATOM     43  CZ  ARG A   3     -35.087 -12.517 -16.638  0.00  0.00    +0.342 C 
ATOM     44  NH2 ARG A   3     -36.176 -12.937 -16.020  0.00  0.00    -0.292 N 
ATOM     45 HH21 ARG A   3     -36.149 -13.808 -15.452  0.00  0.00    +0.255 HD
ATOM     46 HH22 ARG A   3     -37.061 -12.397 -16.101  0.00  0.00    +0.255 HD
ATOM     47  NH1 ARG A   3     -35.176 -11.506 -17.506  0.00  0.00    -0.292 N 
ATOM     48 HH11 ARG A   3     -36.060 -10.963 -17.583  0.00  0.00    +0.255 HD
ATOM     49 HH12 ARG A   3     -34.362 -11.261 -18.105  0.00  0.00    +0.255 HD
ENDBRANCH  40  41
ENDBRANCH  39  40
ENDBRANCH  38  39
ENDBRANCH  21  38
ENDBRANCH  17  21
ENDBRANCH  16  19
BRANCH  16  50
ATOM     50  CB  ARG A   4     -29.557  -7.380 -16.171  0.00  0.00    +0.033 C 
BRANCH  50  51
ATOM     51  CG  ARG A   4     -28.407  -6.594 -16.822  0.00  0.00    +0.045 C 
BRANCH  51  52
ATOM     52  CD  ARG A   4     -28.838  -5.768 -18.100  0.00  0.00    +0.174 C 
BRANCH  52  53
ATOM     53  NE  ARG A   4     -29.923  -4.823 -17.825  0.00  0.00    -0.265 N 
ATOM     54  HE  ARG A   4     -29.668  -3.852 -17.555  0.00  0.00    +0.259 HD
ATOM     55  CZ  ARG A   4     -31.219  -5.132 -17.900  0.00  0.00    +0.342 C 
ATOM     56  NH2 ARG A   4     -32.149  -4.258 -17.510  0.00  0.00    -0.292 N 
ATOM     57 HH21 ARG A   4     -31.866  -3.327 -17.144  0.00  0.00    +0.255 HD
ATOM     58 HH22 ARG A   4     -33.157  -4.508 -17.572  0.00  0.00    +0.255 HD
ATOM     59  NH1 ARG A   4     -31.588  -6.340 -18.308  0.00  0.00    -0.292 N 
ATOM     60 HH11 ARG A   4     -32.597  -6.583 -18.367  0.00  0.00    +0.255 HD
ATOM     61 HH12 ARG A   4     -30.868  -7.043 -18.568  0.00  0.00    +0.255 HD
ENDBRANCH  52  53
ENDBRANCH  51  52
ENDBRANCH  50  51
ENDBRANCH  16  50
ENDBRANCH  12  16
ENDBRANCH  11  13
BRANCH  11  62
ATOM     62  CB  LEU A   5     -28.099  -7.369 -10.929  0.00  0.00    +0.029 C 
BRANCH  62  63
ATOM     63  CG  LEU A   5     -27.148  -7.285  -9.718  0.00  0.00    +0.002 C 
ATOM     64  CD2 LEU A   5     -27.907  -7.045  -8.395  0.00  0.00    +0.000 C 
ATOM     65  CD1 LEU A   5     -26.115  -6.234  -9.939  0.00  0.00    +0.000 C 
ENDBRANCH  62  63
ENDBRANCH  11  62
ENDBRANCH   7  11
ENDBRANCH   6   8
ENDBRANCH   2   6
ENDBRANCH   1   4
BRANCH   1  66
ATOM     66  C   GLU A   7     -23.992 -11.065 -15.296  0.00  0.00    +0.241 C 
ATOM     67  N   SER A   8     -24.177  -9.829 -14.879  0.00  0.00    -0.295 N 
ATOM     68  H   SER A   8     -25.124  -9.534 -14.565  0.00  0.00    +0.150 HD
ATOM     69  O   GLU A   7     -22.901 -11.467 -15.708  0.00  0.00    -0.273 OA
BRANCH  67  70
ATOM     70  CA  SER A   8     -23.106  -8.888 -14.849  0.00  0.00    +0.178 C 
BRANCH  70  71
ATOM     71  C   SER A   8     -22.068  -9.264 -13.774  0.00  0.00    +0.243 C 
ATOM     72  N   LEU A   9     -22.522  -9.614 -12.579  0.00  0.00    -0.297 N 
ATOM     73  H   LEU A   9     -23.546  -9.599 -12.395  0.00  0.00    +0.150 HD
ATOM     74  O   SER A   8     -20.874  -9.144 -14.002  0.00  0.00    -0.273 OA
BRANCH  72  75
ATOM     75  CA  LEU A   9     -21.615 -10.016 -11.527  0.00  0.00    +0.149 C 
BRANCH  75  76
ATOM     76  C   LEU A   9     -20.867 -11.256 -11.970  0.00  0.00    +0.241 C 
ATOM     77  O   LEU A   9     -19.679 -11.423 -11.658  0.00  0.00    -0.273 OA
ATOM     78  N   GLN A  10     -21.554 -12.159 -12.658  0.00  0.00    -0.297 N 
ATOM     79  H   GLN A  10     -22.566 -12.016 -12.850  0.00  0.00    +0.150 HD
BRANCH  78  80
ATOM     80  CA  GLN A  10     -20.872 -13.357 -13.142  0.00  0.00    +0.149 C 
BRANCH  80  81
ATOM     81  C   GLN A  10     -19.777 -12.992 -14.139  0.00  0.00    +0.241 C 
ATOM     82  O   GLN A  10     -18.720 -13.591 -14.135  0.00  0.00    -0.273 OA
ATOM     83  N   LEU A  11     -20.043 -12.042 -15.023  0.00  0.00    -0.297 N 
ATOM     84  H   LEU A  11     -20.965 -11.561 -15.011  0.00  0.00    +0.150 HD
BRANCH  83  85
ATOM     85  CA  LEU A  11     -19.049 -11.678 -16.003  0.00  0.00    +0.149 C 
BRANCH  85  86
ATOM     86  C   LEU A  11     -17.827 -10.986 -15.356  0.00  0.00    +0.241 C 
ATOM     87  N   ILE A  12     -18.066 -10.187 -14.320  0.00  0.00    -0.297 N 
ATOM     88  H   ILE A  12     -19.052  -9.971 -14.070  0.00  0.00    +0.150 HD
ATOM     89  O   LEU A  11     -16.677 -11.217 -15.767  0.00  0.00    -0.273 OA
BRANCH  87  90
ATOM     90  CA  ILE A  12     -16.987  -9.599 -13.518  0.00  0.00    +0.149 C 
BRANCH  90  91
ATOM     91  C   ILE A  12     -16.149 -10.679 -12.829  0.00  0.00    +0.241 C 
ATOM     92  N   ASN A  13     -16.832 -11.639 -12.242  0.00  0.00    -0.297 N 
ATOM     93  H   ASN A  13     -17.868 -11.572 -12.188  0.00  0.00    +0.150 HD
ATOM     94  O   ILE A  12     -14.908 -10.644 -12.841  0.00  0.00    -0.273 OA
BRANCH  92  95
ATOM     95  CA  ASN A  13     -16.161 -12.787 -11.670  0.00  0.00    +0.158 C 
BRANCH  95  96
ATOM     96  C   ASN A  13     -15.261 -13.454 -12.726  0.00  0.00    +0.241 C 
ATOM     97  O   ASN A  13     -14.126 -13.755 -12.461  0.00  0.00    -0.273 OA
ATOM     98  N   ILE A  14     -15.749 -13.610 -13.942  0.00  0.00    -0.298 N 
ATOM     99  H   ILE A  14     -16.711 -13.277 -14.155  0.00  0.00    +0.150 HD
BRANCH  98 100
ATOM    100  CA  ILE A  14     -14.952 -14.248 -15.000  0.00  0.00    +0.137 C 
BRANCH 100 101
ATOM    101  C   ILE A  14     -13.725 -13.375 -15.312  0.00  0.00    +0.227 C 
ATOM    102  O   ILE A  14     -12.592 -13.867 -15.436  0.00  0.00    -0.286 OA
ENDBRANCH 100 101
BRANCH 100 103
ATOM    103  CB  ILE A  14     -15.798 -14.454 -16.246  0.00  0.00    +0.026 C 
ATOM    104  CG2 ILE A  14     -14.932 -14.545 -17.530  0.00  0.00    +0.002 C 
BRANCH 103 105
ATOM    105  CG1 ILE A  14     -16.746 -15.630 -16.041  0.00  0.00    +0.002 C 
ATOM    106  CD1 ILE A  14     -17.937 -15.622 -16.991  0.00  0.00    +0.000 C 
ENDBRANCH 103 105
ENDBRANCH 100 103
ENDBRANCH  98 100
ENDBRANCH  95  96
BRANCH  95 107
ATOM    107  CB  ASN A  13     -17.211 -13.765 -11.132  0.00  0.00    +0.114 C 
BRANCH 107 108
ATOM    108  CG  ASN A  13     -16.598 -14.990 -10.480  0.00  0.00    +0.222 C 
ATOM    109  OD1 ASN A  13     -16.375 -15.002  -9.274  0.00  0.00    -0.275 OA
ATOM    110  ND2 ASN A  13     -16.258 -16.001 -11.288  0.00  0.00    -0.329 N 
ATOM    111 HD21 ASN A  13     -15.784 -16.841 -10.899  0.00  0.00    +0.145 HD
ATOM    112 HD22 ASN A  13     -16.467 -15.947 -12.305  0.00  0.00    +0.145 HD
ENDBRANCH 107 108
ENDBRANCH  95 107
ENDBRANCH  92  95
ENDBRANCH  90  91
BRANCH  90 113
ATOM    113  CB  ILE A  12     -17.540  -8.647 -12.458  0.00  0.00    +0.027 C 
ATOM    114  CG2 ILE A  12     -16.452  -8.267 -11.412  0.00  0.00    +0.002 C 
BRANCH 113 115
ATOM    115  CG1 ILE A  12     -18.051  -7.371 -13.142  0.00  0.00    +0.002 C 
ATOM    116  CD1 ILE A  12     -19.043  -6.610 -12.291  0.00  0.00    +0.000 C 
ENDBRANCH 113 115
ENDBRANCH  90 113
ENDBRANCH  87  90
ENDBRANCH  85  86
BRANCH  85 117
ATOM    117  CB  LEU A  11     -19.685 -10.812 -17.092  0.00  0.00    +0.029 C 
BRANCH 117 118
ATOM    118  CG  LEU A  11     -18.770 -10.294 -18.209  0.00  0.00    +0.002 C 
ATOM    119  CD2 LEU A  11     -18.230 -11.469 -19.003  0.00  0.00    +0.000 C 
ATOM    120  CD1 LEU A  11     -19.526  -9.292 -19.150  0.00  0.00    +0.000 C 
ENDBRANCH 117 118
ENDBRANCH  85 117
ENDBRANCH  83  85
ENDBRANCH  80  81
BRANCH  80 121
ATOM    121  CB  GLN A  10     -21.835 -14.332 -13.813  0.00  0.00    +0.039 C 
BRANCH 121 122
ATOM    122  CG  GLN A  10     -21.183 -15.629 -14.271  0.00  0.00    +0.087 C 
BRANCH 122 123
ATOM    123  CD  GLN A  10     -20.475 -16.385 -13.140  0.00  0.00    +0.219 C 
ATOM    124  OE1 GLN A  10     -20.815 -16.276 -11.958  0.00  0.00    -0.275 OA
ATOM    125  NE2 GLN A  10     -19.474 -17.147 -13.512  0.00  0.00    -0.329 N 
ATOM    126 HE21 GLN A  10     -18.938 -17.684 -12.801  0.00  0.00    +0.145 HD
ATOM    127 HE22 GLN A  10     -19.217 -17.214 -14.518  0.00  0.00    +0.145 HD
ENDBRANCH 122 123
ENDBRANCH 121 122
ENDBRANCH  80 121
ENDBRANCH  78  80
ENDBRANCH  75  76
BRANCH  75 128
ATOM    128  CB  LEU A   9     -22.374 -10.315 -10.230  0.00  0.00    +0.029 C 
BRANCH 128 129
ATOM    129  CG  LEU A   9     -23.072  -9.070  -9.700  0.00  0.00    +0.002 C 
ATOM    130  CD2 LEU A   9     -24.069  -9.434  -8.585  0.00  0.00    +0.000 C 
ATOM    131  CD1 LEU A   9     -22.011  -8.135  -9.199  0.00  0.00    +0.000 C 
ENDBRANCH 128 129
ENDBRANCH  75 128
ENDBRANCH  72  75
ENDBRANCH  70  71
BRANCH  70 132
ATOM    132  CB  SER A   8     -23.721  -7.488 -14.569  0.00  0.00    +0.166 C 
BRANCH 132 133
ATOM    133  OG  SER A   8     -22.712  -6.498 -14.550  0.00  0.00    -0.380 OA
ATOM    134  H   SER A   8     -23.121  -5.615 -14.371  0.00  0.00    +0.211 HD
ENDBRANCH 132 133
ENDBRANCH  70 132
ENDBRANCH  67  70
ENDBRANCH   1  66
BRANCH   1 135
ATOM    135  CB  GLU A   7     -26.030 -11.894 -16.485  0.00  0.00    +0.041 C 
BRANCH 135 136
ATOM    136  CG  GLU A   7     -27.206 -12.897 -16.498  0.00  0.00    +0.116 C 
BRANCH 136 137
ATOM    137  CD  GLU A   7     -28.018 -12.798 -17.780  0.00  0.00    +0.365 C 
ATOM    138  OE2 GLU A   7     -29.115 -13.351 -17.828  0.00  0.00    -0.246 OA
ATOM    139  OE1 GLU A   7     -27.515 -12.273 -18.779  0.00  0.00    -0.246 OA
ENDBRANCH 136 137
ENDBRANCH 135 136
ENDBRANCH   1 135
TORSDOF 57
REMARK  Name = ../refined-set-2016/4ea2/4ea2_pocket.pdb
REMARK  233 active torsions:
REMARK  status: ('A' for Active; 'I' for Inactive)
REMARK    1  A    between atoms: _1  and  _3
REMARK    2  A    between atoms: _3  and  _4
REMARK    3  A    between atoms: _3  and  _6
REMARK    4  A    between atoms: _6  and  _7
REMARK    5  A    between atoms: _10  and  _12
REMARK    6  A    between atoms: _12  and  _13
REMARK    7  A    between atoms: _12  and  _15
REMARK    8  A    between atoms: _15  and  _16
REMARK    9  A    between atoms: _16  and  _17
REMARK   10  A    between atoms: _19  and  _21
REMARK   11  A    between atoms: _21  and  _22
REMARK   12  A    between atoms: _21  and  _24
REMARK   13  A    between atoms: _24  and  _25
REMARK   14  A    between atoms: _30  and  _32
REMARK   15  A    between atoms: _32  and  _33
REMARK   16  A    between atoms: _32  and  _35
REMARK   17  A    between atoms: _35  and  _36
REMARK   18  A    between atoms: _38  and  _40
REMARK   19  A    between atoms: _40  and  _41
REMARK   20  A    between atoms: _40  and  _43
REMARK   21  A    between atoms: _43  and  _44
REMARK   22  A    between atoms: _46  and  _48
REMARK   23  A    between atoms: _48  and  _49
REMARK   24  A    between atoms: _48  and  _51
REMARK   25  A    between atoms: _51  and  _52
REMARK   26  A    between atoms: _58  and  _60
REMARK   27  A    between atoms: _60  and  _61
REMARK   28  A    between atoms: _64  and  _66
REMARK   29  A    between atoms: _66  and  _67
REMARK   30  A    between atoms: _66  and  _69
REMARK   31  A    between atoms: _69  and  _70
REMARK   32  A    between atoms: _76  and  _78
REMARK   33  A    between atoms: _78  and  _79
REMARK   34  A    between atoms: _78  and  _81
REMARK   35  A    between atoms: _84  and  _86
REMARK   36  A    between atoms: _86  and  _87
REMARK   37  A    between atoms: _86  and  _89
REMARK   38  A    between atoms: _89  and  _90
REMARK   39  A    between atoms: _93  and  _95
REMARK   40  A    between atoms: _95  and  _96
REMARK   41  A    between atoms: _95  and  _98
REMARK   42  A    between atoms: _98  and  _99
REMARK   43  A    between atoms: _104  and  _105
REMARK   44  A    between atoms: _107  and  _109
REMARK   45  A    between atoms: _109  and  _110
REMARK   46  A    between atoms: _113  and  _115
REMARK   47  A    between atoms: _115  and  _116
REMARK   48  A    between atoms: _115  and  _118
REMARK   49  A    between atoms: _121  and  _123
REMARK   50  A    between atoms: _123  and  _124
REMARK   51  A    between atoms: _123  and  _126
REMARK   52  A    between atoms: _128  and  _130
REMARK   53  A    between atoms: _130  and  _131
REMARK   54  A    between atoms: _130  and  _133
REMARK   55  A    between atoms: _133  and  _134
REMARK   56  A    between atoms: _134  and  _135
REMARK   57  A    between atoms: _135  and  _136
REMARK   58  A    between atoms: _145  and  _147
REMARK   59  A    between atoms: _147  and  _148
REMARK   60  A    between atoms: _147  and  _150
REMARK   61  A    between atoms: _150  and  _151
REMARK   62  A    between atoms: _151  and  _152
REMARK   63  A    between atoms: _152  and  _153
REMARK   64  A    between atoms: _153  and  _154
REMARK   65  A    between atoms: _158  and  _160
REMARK   66  A    between atoms: _160  and  _161
REMARK   67  A    between atoms: _160  and  _163
REMARK   68  A    between atoms: _163  and  _164
REMARK   69  A    between atoms: _167  and  _169
REMARK   70  A    between atoms: _169  and  _170
REMARK   71  A    between atoms: _169  and  _172
REMARK   72  A    between atoms: _172  and  _173
REMARK   73  A    between atoms: _176  and  _178
REMARK   74  A    between atoms: _178  and  _179
REMARK   75  A    between atoms: _178  and  _181
REMARK   76  A    between atoms: _181  and  _182
REMARK   77  A    between atoms: _185  and  _187
REMARK   78  A    between atoms: _187  and  _188
REMARK   79  A    between atoms: _187  and  _190
REMARK   80  A    between atoms: _190  and  _191
REMARK   81  A    between atoms: _197  and  _199
REMARK   82  A    between atoms: _199  and  _200
REMARK   83  A    between atoms: _199  and  _202
REMARK   84  A    between atoms: _202  and  _203
REMARK   85  A    between atoms: _206  and  _208
REMARK   86  A    between atoms: _208  and  _209
REMARK   87  A    between atoms: _208  and  _211
REMARK   88  A    between atoms: _211  and  _212
REMARK   89  A    between atoms: _215  and  _217
REMARK   90  A    between atoms: _217  and  _218
REMARK   91  A    between atoms: _217  and  _220
REMARK   92  A    between atoms: _223  and  _225
REMARK   93  A    between atoms: _225  and  _226
REMARK   94  A    between atoms: _225  and  _228
REMARK   95  A    between atoms: _228  and  _229
REMARK   96  A    between atoms: _234  and  _235
REMARK   97  A    between atoms: _237  and  _239
REMARK   98  A    between atoms: _239  and  _240
REMARK   99  A    between atoms: _239  and  _242
REMARK  100  A    between atoms: _244  and  _246
REMARK  101  A    between atoms: _246  and  _247
REMARK  102  A    between atoms: _246  and  _249
REMARK  103  A    between atoms: _249  and  _250
REMARK  104  A    between atoms: _255  and  _256
REMARK  105  A    between atoms: _258  and  _260
REMARK  106  A    between atoms: _260  and  _261
REMARK  107  A    between atoms: _263  and  _265
REMARK  108  A    between atoms: _265  and  _266
REMARK  109  A    between atoms: _265  and  _268
REMARK  110  A    between atoms: _271  and  _273
REMARK  111  A    between atoms: _273  and  _274
REMARK  112  A    between atoms: _277  and  _279
REMARK  113  A    between atoms: _279  and  _280
REMARK  114  A    between atoms: _282  and  _284
REMARK  115  A    between atoms: _284  and  _285
REMARK  116  A    between atoms: _284  and  _287
REMARK  117  A    between atoms: _287  and  _288
REMARK  118  A    between atoms: _291  and  _293
REMARK  119  A    between atoms: _293  and  _294
REMARK  120  A    between atoms: _293  and  _296
REMARK  121  A    between atoms: _299  and  _301
REMARK  122  A    between atoms: _301  and  _302
REMARK  123  A    between atoms: _304  and  _306
REMARK  124  A    between atoms: _306  and  _307
REMARK  125  A    between atoms: _306  and  _309
REMARK  126  A    between atoms: _309  and  _310
REMARK  127  A    between atoms: _310  and  _311
REMARK  128  A    between atoms: _314  and  _316
REMARK  129  A    between atoms: _316  and  _317
REMARK  130  A    between atoms: _316  and  _319
REMARK  131  A    between atoms: _322  and  _324
REMARK  132  A    between atoms: _324  and  _325
REMARK  133  A    between atoms: _324  and  _327
REMARK  134  A    between atoms: _327  and  _328
REMARK  135  A    between atoms: _331  and  _333
REMARK  136  A    between atoms: _333  and  _334
REMARK  137  A    between atoms: _333  and  _336
REMARK  138  A    between atoms: _336  and  _337
REMARK  139  A    between atoms: _340  and  _342
REMARK  140  A    between atoms: _342  and  _343
REMARK  141  A    between atoms: _342  and  _345
REMARK  142  A    between atoms: _345  and  _346
REMARK  143  A    between atoms: _349  and  _351
REMARK  144  A    between atoms: _351  and  _352
REMARK  145  A    between atoms: _351  and  _354
REMARK  146  A    between atoms: _357  and  _359
REMARK  147  A    between atoms: _359  and  _360
REMARK  148  A    between atoms: _363  and  _365
REMARK  149  A    between atoms: _365  and  _366
REMARK  150  A    between atoms: _365  and  _368
REMARK  151  A    between atoms: _368  and  _369
REMARK  152  A    between atoms: _369  and  _370
REMARK  153  A    between atoms: _370  and  _371
REMARK  154  A    between atoms: _380  and  _382
REMARK  155  A    between atoms: _382  and  _383
REMARK  156  A    between atoms: _382  and  _385
REMARK  157  A    between atoms: _385  and  _386
REMARK  158  A    between atoms: _386  and  _387
REMARK  159  A    between atoms: _387  and  _388
REMARK  160  A    between atoms: _397  and  _399
REMARK  161  A    between atoms: _399  and  _400
REMARK  162  A    between atoms: _399  and  _402
REMARK  163  A    between atoms: _402  and  _403
REMARK  164  A    between atoms: _406  and  _408
REMARK  165  A    between atoms: _408  and  _409
REMARK  166  A    between atoms: _411  and  _413
REMARK  167  A    between atoms: _413  and  _414
REMARK  168  A    between atoms: _413  and  _416
REMARK  169  A    between atoms: _416  and  _417
REMARK  170  A    between atoms: _417  and  _418
REMARK  171  A    between atoms: _421  and  _423
REMARK  172  A    between atoms: _423  and  _424
REMARK  173  A    between atoms: _423  and  _426
REMARK  174  A    between atoms: _426  and  _427
REMARK  175  A    between atoms: _429  and  _431
REMARK  176  A    between atoms: _431  and  _432
REMARK  177  A    between atoms: _431  and  _434
REMARK  178  A    between atoms: _434  and  _435
REMARK  179  A    between atoms: _438  and  _440
REMARK  180  A    between atoms: _440  and  _441
REMARK  181  A    between atoms: _440  and  _443
REMARK  182  A    between atoms: _443  and  _444
REMARK  183  A    between atoms: _444  and  _445
REMARK  184  A    between atoms: _450  and  _452
REMARK  185  A    between atoms: _452  and  _453
REMARK  186  A    between atoms: _452  and  _455
REMARK  187  A    between atoms: _455  and  _456
REMARK  188  A    between atoms: _459  and  _461
REMARK  189  A    between atoms: _461  and  _462
REMARK  190  A    between atoms: _461  and  _464
REMARK  191  A    between atoms: _464  and  _465
REMARK  192  A    between atoms: _468  and  _470
REMARK  193  A    between atoms: _470  and  _471
REMARK  194  A    between atoms: _470  and  _473
REMARK  195  A    between atoms: _473  and  _474
REMARK  196  A    between atoms: _479  and  _481
REMARK  197  A    between atoms: _481  and  _482
REMARK  198  A    between atoms: _481  and  _484
REMARK  199  A    between atoms: _484  and  _485
REMARK  200  A    between atoms: _488  and  _490
REMARK  201  A    between atoms: _490  and  _491
REMARK  202  A    between atoms: _490  and  _493
REMARK  203  A    between atoms: _493  and  _494
REMARK  204  A    between atoms: _494  and  _495
REMARK  205  A    between atoms: _495  and  _496
REMARK  206  A    between atoms: _505  and  _507
REMARK  207  A    between atoms: _507  and  _508
REMARK  208  A    between atoms: _507  and  _510
REMARK  209  A    between atoms: _510  and  _511
REMARK  210  A    between atoms: _514  and  _516
REMARK  211  A    between atoms: _516  and  _517
REMARK  212  A    between atoms: _516  and  _519
REMARK  213  A    between atoms: _522  and  _524
REMARK  214  A    between atoms: _524  and  _525
REMARK  215  A    between atoms: _524  and  _527
REMARK  216  A    between atoms: _527  and  _528
REMARK  217  A    between atoms: _534  and  _536
REMARK  218  A    between atoms: _536  and  _537
REMARK  219  A    between atoms: _536  and  _539
REMARK  220  A    between atoms: _539  and  _540
REMARK  221  A    between atoms: _543  and  _545
REMARK  222  A    between atoms: _545  and  _546
REMARK  223  A    between atoms: _549  and  _551
REMARK  224  A    between atoms: _551  and  _552
REMARK  225  A    between atoms: _555  and  _557
REMARK  226  A    between atoms: _557  and  _558
REMARK  227  A    between atoms: _557  and  _560
REMARK  228  A    between atoms: _560  and  _561
REMARK  229  A    between atoms: _566  and  _567
REMARK  230  A    between atoms: _569  and  _571
REMARK  231  A    between atoms: _571  and  _572
REMARK  232  A    between atoms: _571  and  _574
REMARK  233  A    between atoms: _574  and  _575
REMARK                            x       y       z     vdW  Elec       q    Type
REMARK                         _______ _______ _______ _____ _____    ______ ____
ROOT
ATOM      1  CA  ARG A   1     -11.242 -11.504 -12.127  0.00  0.00    +0.145 C 
ENDROOT
BRANCH   1   2
ATOM      2  C   ARG A   1     -10.371 -12.762 -12.195  0.00  0.00    +0.238 C 
ATOM      3  O   ARG A   1      -9.239 -12.759 -11.717  0.00  0.00    -0.274 OA
ATOM      4  N   ASP A   2     -10.904 -13.833 -12.759  0.00  0.00    -0.298 N 
ATOM      5  H   ASP A   2     -11.677 -13.712 -13.444  0.00  0.00    +0.150 HD
BRANCH   4   6
ATOM      6  CA  ASP A   2     -10.439 -15.176 -12.448  0.00  0.00    +0.148 C 
BRANCH   6   7
ATOM      7  C   ASP A   2      -9.854 -15.860 -13.678  0.00  0.00    +0.227 C 
ATOM      8  O   ASP A   2      -9.737 -17.081 -13.701  0.00  0.00    -0.286 OA
ENDBRANCH   6   7
BRANCH   6   9
ATOM      9  CB  ASP A   2     -11.581 -16.051 -11.883  0.00  0.00    +0.142 C 
BRANCH   9  10
ATOM     10  CG  ASP A   2     -12.000 -15.648 -10.458  0.00  0.00    +0.367 C 
ATOM     11  OD2 ASP A   2     -11.359 -14.765  -9.835  0.00  0.00    -0.246 OA
ATOM     12  OD1 ASP A   2     -12.999 -16.217  -9.961  0.00  0.00    -0.246 OA
ENDBRANCH   9  10
ENDBRANCH   6   9
ENDBRANCH   4   6
ENDBRANCH   1   2
BRANCH   1  13
ATOM     13  N   ARG A   1     -12.186 -11.458 -13.257  0.00  0.00    -0.238 NA
ATOM     14  H   ARG A   1     -13.192 -11.659 -13.085  0.00  0.00    +0.142 HD
ENDBRANCH   1  13
BRANCH   1  15
ATOM     15  CB  ARG A   1     -11.977 -11.477 -10.787  0.00  0.00    +0.030 C 
BRANCH  15  16
ATOM     16  CG  ARG A   1     -11.063 -11.427  -9.545  0.00  0.00    +0.045 C 
BRANCH  16  17
ATOM     17  CD  ARG A   1     -11.846 -11.655  -8.255  0.00  0.00    +0.174 C 
BRANCH  17  18
ATOM     18  NE  ARG A   1     -12.247 -13.059  -8.221  0.00  0.00    -0.265 N 
ATOM     19  CZ  ARG A   1     -13.253 -13.543  -7.498  0.00  0.00    +0.342 C 
ATOM     20  NH2 ARG A   1     -13.920 -12.750  -6.664  0.00  0.00    -0.292 N 
ATOM     21 HH21 ARG A   1     -14.706 -13.132  -6.100  0.00  0.00    +0.255 HD
ATOM     22 HH22 ARG A   1     -13.655 -11.748  -6.576  0.00  0.00    +0.255 HD
ATOM     23  NH1 ARG A   1     -13.603 -14.827  -7.621  0.00  0.00    -0.292 N 
ATOM     24 HH11 ARG A   1     -14.389 -15.208  -7.057  0.00  0.00    +0.255 HD
ATOM     25 HH12 ARG A   1     -13.089 -15.445  -8.281  0.00  0.00    +0.255 HD
ATOM     26  HE  ARG A   1     -11.707 -13.729  -8.805  0.00  0.00    +0.259 HD
ENDBRANCH  17  18
ENDBRANCH  16  17
ENDBRANCH  15  16
ENDBRANCH   1  15
TORSDOF 10
REMARK  Name = ../refined-set-2016/4ea2/4ea2_pocket.pdb
REMARK  233 active torsions:
REMARK  status: ('A' for Active; 'I' for Inactive)
REMARK    1  A    between atoms: _1  and  _3
REMARK    2  A    between atoms: _3  and  _4
REMARK    3  A    between atoms: _3  and  _6
REMARK    4  A    between atoms: _6  and  _7
REMARK    5  A    between atoms: _10  and  _12
REMARK    6  A    between atoms: _12  and  _13
REMARK    7  A    between atoms: _12  and  _15
REMARK    8  A    between atoms: _15  and  _16
REMARK    9  A    between atoms: _16  and  _17
REMARK   10  A    between atoms: _19  and  _21
REMARK   11  A    between atoms: _21  and  _22
REMARK   12  A    between atoms: _21  and  _24
REMARK   13  A    between atoms: _24  and  _25
REMARK   14  A    between atoms: _30  and  _32
REMARK   15  A    between atoms: _32  and  _33
REMARK   16  A    between atoms: _32  and  _35
REMARK   17  A    between atoms: _35  and  _36
REMARK   18  A    between atoms: _38  and  _40
REMARK   19  A    between atoms: _40  and  _41
REMARK   20  A    between atoms: _40  and  _43
REMARK   21  A    between atoms: _43  and  _44
REMARK   22  A    between atoms: _46  and  _48
REMARK   23  A    between atoms: _48  and  _49
REMARK   24  A    between atoms: _48  and  _51
REMARK   25  A    between atoms: _51  and  _52
REMARK   26  A    between atoms: _58  and  _60
REMARK   27  A    between atoms: _60  and  _61
REMARK   28  A    between atoms: _64  and  _66
REMARK   29  A    between atoms: _66  and  _67
REMARK   30  A    between atoms: _66  and  _69
REMARK   31  A    between atoms: _69  and  _70
REMARK   32  A    between atoms: _76  and  _78
REMARK   33  A    between atoms: _78  and  _79
REMARK   34  A    between atoms: _78  and  _81
REMARK   35  A    between atoms: _84  and  _86
REMARK   36  A    between atoms: _86  and  _87
REMARK   37  A    between atoms: _86  and  _89
REMARK   38  A    between atoms: _89  and  _90
REMARK   39  A    between atoms: _93  and  _95
REMARK   40  A    between atoms: _95  and  _96
REMARK   41  A    between atoms: _95  and  _98
REMARK   42  A    between atoms: _98  and  _99
REMARK   43  A    between atoms: _104  and  _105
REMARK   44  A    between atoms: _107  and  _109
REMARK   45  A    between atoms: _109  and  _110
REMARK   46  A    between atoms: _113  and  _115
REMARK   47  A    between atoms: _115  and  _116
REMARK   48  A    between atoms: _115  and  _118
REMARK   49  A    between atoms: _121  and  _123
REMARK   50  A    between atoms: _123  and  _124
REMARK   51  A    between atoms: _123  and  _126
REMARK   52  A    between atoms: _128  and  _130
REMARK   53  A    between atoms: _130  and  _131
REMARK   54  A    between atoms: _130  and  _133
REMARK   55  A    between atoms: _133  and  _134
REMARK   56  A    between atoms: _134  and  _135
REMARK   57  A    between atoms: _135  and  _136
REMARK   58  A    between atoms: _145  and  _147
REMARK   59  A    between atoms: _147  and  _148
REMARK   60  A    between atoms: _147  and  _150
REMARK   61  A    between atoms: _150  and  _151
REMARK   62  A    between atoms: _151  and  _152
REMARK   63  A    between atoms: _152  and  _153
REMARK   64  A    between atoms: _153  and  _154
REMARK   65  A    between atoms: _158  and  _160
REMARK   66  A    between atoms: _160  and  _161
REMARK   67  A    between atoms: _160  and  _163
REMARK   68  A    between atoms: _163  and  _164
REMARK   69  A    between atoms: _167  and  _169
REMARK   70  A    between atoms: _169  and  _170
REMARK   71  A    between atoms: _169  and  _172
REMARK   72  A    between atoms: _172  and  _173
REMARK   73  A    between atoms: _176  and  _178
REMARK   74  A    between atoms: _178  and  _179
REMARK   75  A    between atoms: _178  and  _181
REMARK   76  A    between atoms: _181  and  _182
REMARK   77  A    between atoms: _185  and  _187
REMARK   78  A    between atoms: _187  and  _188
REMARK   79  A    between atoms: _187  and  _190
REMARK   80  A    between atoms: _190  and  _191
REMARK   81  A    between atoms: _197  and  _199
REMARK   82  A    between atoms: _199  and  _200
REMARK   83  A    between atoms: _199  and  _202
REMARK   84  A    between atoms: _202  and  _203
REMARK   85  A    between atoms: _206  and  _208
REMARK   86  A    between atoms: _208  and  _209
REMARK   87  A    between atoms: _208  and  _211
REMARK   88  A    between atoms: _211  and  _212
REMARK   89  A    between atoms: _215  and  _217
REMARK   90  A    between atoms: _217  and  _218
REMARK   91  A    between atoms: _217  and  _220
REMARK   92  A    between atoms: _223  and  _225
REMARK   93  A    between atoms: _225  and  _226
REMARK   94  A    between atoms: _225  and  _228
REMARK   95  A    between atoms: _228  and  _229
REMARK   96  A    between atoms: _234  and  _235
REMARK   97  A    between atoms: _237  and  _239
REMARK   98  A    between atoms: _239  and  _240
REMARK   99  A    between atoms: _239  and  _242
REMARK  100  A    between atoms: _244  and  _246
REMARK  101  A    between atoms: _246  and  _247
REMARK  102  A    between atoms: _246  and  _249
REMARK  103  A    between atoms: _249  and  _250
REMARK  104  A    between atoms: _255  and  _256
REMARK  105  A    between atoms: _258  and  _260
REMARK  106  A    between atoms: _260  and  _261
REMARK  107  A    between atoms: _263  and  _265
REMARK  108  A    between atoms: _265  and  _266
REMARK  109  A    between atoms: _265  and  _268
REMARK  110  A    between atoms: _271  and  _273
REMARK  111  A    between atoms: _273  and  _274
REMARK  112  A    between atoms: _277  and  _279
REMARK  113  A    between atoms: _279  and  _280
REMARK  114  A    between atoms: _282  and  _284
REMARK  115  A    between atoms: _284  and  _285
REMARK  116  A    between atoms: _284  and  _287
REMARK  117  A    between atoms: _287  and  _288
REMARK  118  A    between atoms: _291  and  _293
REMARK  119  A    between atoms: _293  and  _294
REMARK  120  A    between atoms: _293  and  _296
REMARK  121  A    between atoms: _299  and  _301
REMARK  122  A    between atoms: _301  and  _302
REMARK  123  A    between atoms: _304  and  _306
REMARK  124  A    between atoms: _306  and  _307
REMARK  125  A    between atoms: _306  and  _309
REMARK  126  A    between atoms: _309  and  _310
REMARK  127  A    between atoms: _310  and  _311
REMARK  128  A    between atoms: _314  and  _316
REMARK  129  A    between atoms: _316  and  _317
REMARK  130  A    between atoms: _316  and  _319
REMARK  131  A    between atoms: _322  and  _324
REMARK  132  A    between atoms: _324  and  _325
REMARK  133  A    between atoms: _324  and  _327
REMARK  134  A    between atoms: _327  and  _328
REMARK  135  A    between atoms: _331  and  _333
REMARK  136  A    between atoms: _333  and  _334
REMARK  137  A    between atoms: _333  and  _336
REMARK  138  A    between atoms: _336  and  _337
REMARK  139  A    between atoms: _340  and  _342
REMARK  140  A    between atoms: _342  and  _343
REMARK  141  A    between atoms: _342  and  _345
REMARK  142  A    between atoms: _345  and  _346
REMARK  143  A    between atoms: _349  and  _351
REMARK  144  A    between atoms: _351  and  _352
REMARK  145  A    between atoms: _351  and  _354
REMARK  146  A    between atoms: _357  and  _359
REMARK  147  A    between atoms: _359  and  _360
REMARK  148  A    between atoms: _363  and  _365
REMARK  149  A    between atoms: _365  and  _366
REMARK  150  A    between atoms: _365  and  _368
REMARK  151  A    between atoms: _368  and  _369
REMARK  152  A    between atoms: _369  and  _370
REMARK  153  A    between atoms: _370  and  _371
REMARK  154  A    between atoms: _380  and  _382
REMARK  155  A    between atoms: _382  and  _383
REMARK  156  A    between atoms: _382  and  _385
REMARK  157  A    between atoms: _385  and  _386
REMARK  158  A    between atoms: _386  and  _387
REMARK  159  A    between atoms: _387  and  _388
REMARK  160  A    between atoms: _397  and  _399
REMARK  161  A    between atoms: _399  and  _400
REMARK  162  A    between atoms: _399  and  _402
REMARK  163  A    between atoms: _402  and  _403
REMARK  164  A    between atoms: _406  and  _408
REMARK  165  A    between atoms: _408  and  _409
REMARK  166  A    between atoms: _411  and  _413
REMARK  167  A    between atoms: _413  and  _414
REMARK  168  A    between atoms: _413  and  _416
REMARK  169  A    between atoms: _416  and  _417
REMARK  170  A    between atoms: _417  and  _418
REMARK  171  A    between atoms: _421  and  _423
REMARK  172  A    between atoms: _423  and  _424
REMARK  173  A    between atoms: _423  and  _426
REMARK  174  A    between atoms: _426  and  _427
REMARK  175  A    between atoms: _429  and  _431
REMARK  176  A    between atoms: _431  and  _432
REMARK  177  A    between atoms: _431  and  _434
REMARK  178  A    between atoms: _434  and  _435
REMARK  179  A    between atoms: _438  and  _440
REMARK  180  A    between atoms: _440  and  _441
REMARK  181  A    between atoms: _440  and  _443
REMARK  182  A    between atoms: _443  and  _444
REMARK  183  A    between atoms: _444  and  _445
REMARK  184  A    between atoms: _450  and  _452
REMARK  185  A    between atoms: _452  and  _453
REMARK  186  A    between atoms: _452  and  _455
REMARK  187  A    between atoms: _455  and  _456
REMARK  188  A    between atoms: _459  and  _461
REMARK  189  A    between atoms: _461  and  _462
REMARK  190  A    between atoms: _461  and  _464
REMARK  191  A    between atoms: _464  and  _465
REMARK  192  A    between atoms: _468  and  _470
REMARK  193  A    between atoms: _470  and  _471
REMARK  194  A    between atoms: _470  and  _473
REMARK  195  A    between atoms: _473  and  _474
REMARK  196  A    between atoms: _479  and  _481
REMARK  197  A    between atoms: _481  and  _482
REMARK  198  A    between atoms: _481  and  _484
REMARK  199  A    between atoms: _484  and  _485
REMARK  200  A    between atoms: _488  and  _490
REMARK  201  A    between atoms: _490  and  _491
REMARK  202  A    between atoms: _490  and  _493
REMARK  203  A    between atoms: _493  and  _494
REMARK  204  A    between atoms: _494  and  _495
REMARK  205  A    between atoms: _495  and  _496
REMARK  206  A    between atoms: _505  and  _507
REMARK  207  A    between atoms: _507  and  _508
REMARK  208  A    between atoms: _507  and  _510
REMARK  209  A    between atoms: _510  and  _511
REMARK  210  A    between atoms: _514  and  _516
REMARK  211  A    between atoms: _516  and  _517
REMARK  212  A    between atoms: _516  and  _519
REMARK  213  A    between atoms: _522  and  _524
REMARK  214  A    between atoms: _524  and  _525
REMARK  215  A    between atoms: _524  and  _527
REMARK  216  A    between atoms: _527  and  _528
REMARK  217  A    between atoms: _534  and  _536
REMARK  218  A    between atoms: _536  and  _537
REMARK  219  A    between atoms: _536  and  _539
REMARK  220  A    between atoms: _539  and  _540
REMARK  221  A    between atoms: _543  and  _545
REMARK  222  A    between atoms: _545  and  _546
REMARK  223  A    between atoms: _549  and  _551
REMARK  224  A    between atoms: _551  and  _552
REMARK  225  A    between atoms: _555  and  _557
REMARK  226  A    between atoms: _557  and  _558
REMARK  227  A    between atoms: _557  and  _560
REMARK  228  A    between atoms: _560  and  _561
REMARK  229  A    between atoms: _566  and  _567
REMARK  230  A    between atoms: _569  and  _571
REMARK  231  A    between atoms: _571  and  _572
REMARK  232  A    between atoms: _571  and  _574
REMARK  233  A    between atoms: _574  and  _575
REMARK                            x       y       z     vdW  Elec       q    Type
REMARK                         _______ _______ _______ _____ _____    ______ ____
ROOT
ATOM      1  CA  VAL A   1     -29.220  -1.812 -13.428  0.00  0.00    +0.133 C 
ENDROOT
BRANCH   1   2
ATOM      2  CB  VAL A   1     -28.413  -2.999 -12.746  0.00  0.00    +0.023 C 
ATOM      3  CG2 VAL A   1     -28.939  -3.286 -11.354  0.00  0.00    +0.002 C 
ATOM      4  CG1 VAL A   1     -28.514  -4.303 -13.609  0.00  0.00    +0.002 C 
ENDBRANCH   1   2
BRANCH   1   5
ATOM      5  N   VAL A   1     -28.614  -1.388 -14.700  0.00  0.00    -0.239 NA
ATOM      6  H   VAL A   1     -27.684  -1.768 -14.967  0.00  0.00    +0.142 HD
ENDBRANCH   1   5
BRANCH   1   7
ATOM      7  C   VAL A   1     -29.378  -0.661 -12.425  0.00  0.00    +0.224 C 
ATOM      8  O   VAL A   1     -30.441  -0.492 -11.811  0.00  0.00    -0.287 OA
ENDBRANCH   1   7
TORSDOF 3
REMARK  Name = ../refined-set-2016/4ea2/4ea2_pocket.pdb
REMARK  233 active torsions:
REMARK  status: ('A' for Active; 'I' for Inactive)
REMARK    1  A    between atoms: _1  and  _3
REMARK    2  A    between atoms: _3  and  _4
REMARK    3  A    between atoms: _3  and  _6
REMARK    4  A    between atoms: _6  and  _7
REMARK    5  A    between atoms: _10  and  _12
REMARK    6  A    between atoms: _12  and  _13
REMARK    7  A    between atoms: _12  and  _15
REMARK    8  A    between atoms: _15  and  _16
REMARK    9  A    between atoms: _16  and  _17
REMARK   10  A    between atoms: _19  and  _21
REMARK   11  A    between atoms: _21  and  _22
REMARK   12  A    between atoms: _21  and  _24
REMARK   13  A    between atoms: _24  and  _25
REMARK   14  A    between atoms: _30  and  _32
REMARK   15  A    between atoms: _32  and  _33
REMARK   16  A    between atoms: _32  and  _35
REMARK   17  A    between atoms: _35  and  _36
REMARK   18  A    between atoms: _38  and  _40
REMARK   19  A    between atoms: _40  and  _41
REMARK   20  A    between atoms: _40  and  _43
REMARK   21  A    between atoms: _43  and  _44
REMARK   22  A    between atoms: _46  and  _48
REMARK   23  A    between atoms: _48  and  _49
REMARK   24  A    between atoms: _48  and  _51
REMARK   25  A    between atoms: _51  and  _52
REMARK   26  A    between atoms: _58  and  _60
REMARK   27  A    between atoms: _60  and  _61
REMARK   28  A    between atoms: _64  and  _66
REMARK   29  A    between atoms: _66  and  _67
REMARK   30  A    between atoms: _66  and  _69
REMARK   31  A    between atoms: _69  and  _70
REMARK   32  A    between atoms: _76  and  _78
REMARK   33  A    between atoms: _78  and  _79
REMARK   34  A    between atoms: _78  and  _81
REMARK   35  A    between atoms: _84  and  _86
REMARK   36  A    between atoms: _86  and  _87
REMARK   37  A    between atoms: _86  and  _89
REMARK   38  A    between atoms: _89  and  _90
REMARK   39  A    between atoms: _93  and  _95
REMARK   40  A    between atoms: _95  and  _96
REMARK   41  A    between atoms: _95  and  _98
REMARK   42  A    between atoms: _98  and  _99
REMARK   43  A    between atoms: _104  and  _105
REMARK   44  A    between atoms: _107  and  _109
REMARK   45  A    between atoms: _109  and  _110
REMARK   46  A    between atoms: _113  and  _115
REMARK   47  A    between atoms: _115  and  _116
REMARK   48  A    between atoms: _115  and  _118
REMARK   49  A    between atoms: _121  and  _123
REMARK   50  A    between atoms: _123  and  _124
REMARK   51  A    between atoms: _123  and  _126
REMARK   52  A    between atoms: _128  and  _130
REMARK   53  A    between atoms: _130  and  _131
REMARK   54  A    between atoms: _130  and  _133
REMARK   55  A    between atoms: _133  and  _134
REMARK   56  A    between atoms: _134  and  _135
REMARK   57  A    between atoms: _135  and  _136
REMARK   58  A    between atoms: _145  and  _147
REMARK   59  A    between atoms: _147  and  _148
REMARK   60  A    between atoms: _147  and  _150
REMARK   61  A    between atoms: _150  and  _151
REMARK   62  A    between atoms: _151  and  _152
REMARK   63  A    between atoms: _152  and  _153
REMARK   64  A    between atoms: _153  and  _154
REMARK   65  A    between atoms: _158  and  _160
REMARK   66  A    between atoms: _160  and  _161
REMARK   67  A    between atoms: _160  and  _163
REMARK   68  A    between atoms: _163  and  _164
REMARK   69  A    between atoms: _167  and  _169
REMARK   70  A    between atoms: _169  and  _170
REMARK   71  A    between atoms: _169  and  _172
REMARK   72  A    between atoms: _172  and  _173
REMARK   73  A    between atoms: _176  and  _178
REMARK   74  A    between atoms: _178  and  _179
REMARK   75  A    between atoms: _178  and  _181
REMARK   76  A    between atoms: _181  and  _182
REMARK   77  A    between atoms: _185  and  _187
REMARK   78  A    between atoms: _187  and  _188
REMARK   79  A    between atoms: _187  and  _190
REMARK   80  A    between atoms: _190  and  _191
REMARK   81  A    between atoms: _197  and  _199
REMARK   82  A    between atoms: _199  and  _200
REMARK   83  A    between atoms: _199  and  _202
REMARK   84  A    between atoms: _202  and  _203
REMARK   85  A    between atoms: _206  and  _208
REMARK   86  A    between atoms: _208  and  _209
REMARK   87  A    between atoms: _208  and  _211
REMARK   88  A    between atoms: _211  and  _212
REMARK   89  A    between atoms: _215  and  _217
REMARK   90  A    between atoms: _217  and  _218
REMARK   91  A    between atoms: _217  and  _220
REMARK   92  A    between atoms: _223  and  _225
REMARK   93  A    between atoms: _225  and  _226
REMARK   94  A    between atoms: _225  and  _228
REMARK   95  A    between atoms: _228  and  _229
REMARK   96  A    between atoms: _234  and  _235
REMARK   97  A    between atoms: _237  and  _239
REMARK   98  A    between atoms: _239  and  _240
REMARK   99  A    between atoms: _239  and  _242
REMARK  100  A    between atoms: _244  and  _246
REMARK  101  A    between atoms: _246  and  _247
REMARK  102  A    between atoms: _246  and  _249
REMARK  103  A    between atoms: _249  and  _250
REMARK  104  A    between atoms: _255  and  _256
REMARK  105  A    between atoms: _258  and  _260
REMARK  106  A    between atoms: _260  and  _261
REMARK  107  A    between atoms: _263  and  _265
REMARK  108  A    between atoms: _265  and  _266
REMARK  109  A    between atoms: _265  and  _268
REMARK  110  A    between atoms: _271  and  _273
REMARK  111  A    between atoms: _273  and  _274
REMARK  112  A    between atoms: _277  and  _279
REMARK  113  A    between atoms: _279  and  _280
REMARK  114  A    between atoms: _282  and  _284
REMARK  115  A    between atoms: _284  and  _285
REMARK  116  A    between atoms: _284  and  _287
REMARK  117  A    between atoms: _287  and  _288
REMARK  118  A    between atoms: _291  and  _293
REMARK  119  A    between atoms: _293  and  _294
REMARK  120  A    between atoms: _293  and  _296
REMARK  121  A    between atoms: _299  and  _301
REMARK  122  A    between atoms: _301  and  _302
REMARK  123  A    between atoms: _304  and  _306
REMARK  124  A    between atoms: _306  and  _307
REMARK  125  A    between atoms: _306  and  _309
REMARK  126  A    between atoms: _309  and  _310
REMARK  127  A    between atoms: _310  and  _311
REMARK  128  A    between atoms: _314  and  _316
REMARK  129  A    between atoms: _316  and  _317
REMARK  130  A    between atoms: _316  and  _319
REMARK  131  A    between atoms: _322  and  _324
REMARK  132  A    between atoms: _324  and  _325
REMARK  133  A    between atoms: _324  and  _327
REMARK  134  A    between atoms: _327  and  _328
REMARK  135  A    between atoms: _331  and  _333
REMARK  136  A    between atoms: _333  and  _334
REMARK  137  A    between atoms: _333  and  _336
REMARK  138  A    between atoms: _336  and  _337
REMARK  139  A    between atoms: _340  and  _342
REMARK  140  A    between atoms: _342  and  _343
REMARK  141  A    between atoms: _342  and  _345
REMARK  142  A    between atoms: _345  and  _346
REMARK  143  A    between atoms: _349  and  _351
REMARK  144  A    between atoms: _351  and  _352
REMARK  145  A    between atoms: _351  and  _354
REMARK  146  A    between atoms: _357  and  _359
REMARK  147  A    between atoms: _359  and  _360
REMARK  148  A    between atoms: _363  and  _365
REMARK  149  A    between atoms: _365  and  _366
REMARK  150  A    between atoms: _365  and  _368
REMARK  151  A    between atoms: _368  and  _369
REMARK  152  A    between atoms: _369  and  _370
REMARK  153  A    between atoms: _370  and  _371
REMARK  154  A    between atoms: _380  and  _382
REMARK  155  A    between atoms: _382  and  _383
REMARK  156  A    between atoms: _382  and  _385
REMARK  157  A    between atoms: _385  and  _386
REMARK  158  A    between atoms: _386  and  _387
REMARK  159  A    between atoms: _387  and  _388
REMARK  160  A    between atoms: _397  and  _399
REMARK  161  A    between atoms: _399  and  _400
REMARK  162  A    between atoms: _399  and  _402
REMARK  163  A    between atoms: _402  and  _403
REMARK  164  A    between atoms: _406  and  _408
REMARK  165  A    between atoms: _408  and  _409
REMARK  166  A    between atoms: _411  and  _413
REMARK  167  A    between atoms: _413  and  _414
REMARK  168  A    between atoms: _413  and  _416
REMARK  169  A    between atoms: _416  and  _417
REMARK  170  A    between atoms: _417  and  _418
REMARK  171  A    between atoms: _421  and  _423
REMARK  172  A    between atoms: _423  and  _424
REMARK  173  A    between atoms: _423  and  _426
REMARK  174  A    between atoms: _426  and  _427
REMARK  175  A    between atoms: _429  and  _431
REMARK  176  A    between atoms: _431  and  _432
REMARK  177  A    between atoms: _431  and  _434
REMARK  178  A    between atoms: _434  and  _435
REMARK  179  A    between atoms: _438  and  _440
REMARK  180  A    between atoms: _440  and  _441
REMARK  181  A    between atoms: _440  and  _443
REMARK  182  A    between atoms: _443  and  _444
REMARK  183  A    between atoms: _444  and  _445
REMARK  184  A    between atoms: _450  and  _452
REMARK  185  A    between atoms: _452  and  _453
REMARK  186  A    between atoms: _452  and  _455
REMARK  187  A    between atoms: _455  and  _456
REMARK  188  A    between atoms: _459  and  _461
REMARK  189  A    between atoms: _461  and  _462
REMARK  190  A    between atoms: _461  and  _464
REMARK  191  A    between atoms: _464  and  _465
REMARK  192  A    between atoms: _468  and  _470
REMARK  193  A    between atoms: _470  and  _471
REMARK  194  A    between atoms: _470  and  _473
REMARK  195  A    between atoms: _473  and  _474
REMARK  196  A    between atoms: _479  and  _481
REMARK  197  A    between atoms: _481  and  _482
REMARK  198  A    between atoms: _481  and  _484
REMARK  199  A    between atoms: _484  and  _485
REMARK  200  A    between atoms: _488  and  _490
REMARK  201  A    between atoms: _490  and  _491
REMARK  202  A    between atoms: _490  and  _493
REMARK  203  A    between atoms: _493  and  _494
REMARK  204  A    between atoms: _494  and  _495
REMARK  205  A    between atoms: _495  and  _496
REMARK  206  A    between atoms: _505  and  _507
REMARK  207  A    between atoms: _507  and  _508
REMARK  208  A    between atoms: _507  and  _510
REMARK  209  A    between atoms: _510  and  _511
REMARK  210  A    between atoms: _514  and  _516
REMARK  211  A    between atoms: _516  and  _517
REMARK  212  A    between atoms: _516  and  _519
REMARK  213  A    between atoms: _522  and  _524
REMARK  214  A    between atoms: _524  and  _525
REMARK  215  A    between atoms: _524  and  _527
REMARK  216  A    between atoms: _527  and  _528
REMARK  217  A    between atoms: _534  and  _536
REMARK  218  A    between atoms: _536  and  _537
REMARK  219  A    between atoms: _536  and  _539
REMARK  220  A    between atoms: _539  and  _540
REMARK  221  A    between atoms: _543  and  _545
REMARK  222  A    between atoms: _545  and  _546
REMARK  223  A    between atoms: _549  and  _551
REMARK  224  A    between atoms: _551  and  _552
REMARK  225  A    between atoms: _555  and  _557
REMARK  226  A    between atoms: _557  and  _558
REMARK  227  A    between atoms: _557  and  _560
REMARK  228  A    between atoms: _560  and  _561
REMARK  229  A    between atoms: _566  and  _567
REMARK  230  A    between atoms: _569  and  _571
REMARK  231  A    between atoms: _571  and  _572
REMARK  232  A    between atoms: _571  and  _574
REMARK  233  A    between atoms: _574  and  _575
REMARK                            x       y       z     vdW  Elec       q    Type
REMARK                         _______ _______ _______ _____ _____    ______ ____
ROOT
ATOM      1  CB  PHE A   1     -34.903  -3.393  -5.328  0.00  0.00    +0.051 C 
ENDROOT
BRANCH   1   2
ATOM      2  CG  PHE A   1     -34.274  -4.174  -6.450  0.00  0.00    -0.020 A 
ATOM      3  CD2 PHE A   1     -34.567  -5.521  -6.615  0.00  0.00    -0.004 A 
ATOM      4  CE2 PHE A   1     -33.962  -6.268  -7.638  0.00  0.00    -0.000 A 
ATOM      5  CZ  PHE A   1     -33.079  -5.655  -8.512  0.00  0.00    -0.000 A 
ATOM      6  CE1 PHE A   1     -32.747  -4.314  -8.341  0.00  0.00    -0.000 A 
ATOM      7  CD1 PHE A   1     -33.311  -3.590  -7.269  0.00  0.00    -0.004 A 
ENDBRANCH   1   2
BRANCH   1   8
ATOM      8  CA  PHE A   1     -36.387  -3.078  -5.551  0.00  0.00    +0.137 C 
BRANCH   8   9
ATOM      9  N   PHE A   1     -36.580  -2.353  -6.826  0.00  0.00    -0.239 NA
ATOM     10  H   PHE A   1     -35.906  -1.610  -7.101  0.00  0.00    +0.142 HD
ENDBRANCH   8   9
BRANCH   8  11
ATOM     11  C   PHE A   1     -36.929  -2.315  -4.327  0.00  0.00    +0.224 C 
ATOM     12  O   PHE A   1     -37.115  -1.113  -4.383  0.00  0.00    -0.287 OA
ENDBRANCH   8  11
ENDBRANCH   1   8
TORSDOF 4
REMARK  Name = ../refined-set-2016/4ea2/4ea2_pocket.pdb
REMARK  233 active torsions:
REMARK  status: ('A' for Active; 'I' for Inactive)
REMARK    1  A    between atoms: _1  and  _3
REMARK    2  A    between atoms: _3  and  _4
REMARK    3  A    between atoms: _3  and  _6
REMARK    4  A    between atoms: _6  and  _7
REMARK    5  A    between atoms: _10  and  _12
REMARK    6  A    between atoms: _12  and  _13
REMARK    7  A    between atoms: _12  and  _15
REMARK    8  A    between atoms: _15  and  _16
REMARK    9  A    between atoms: _16  and  _17
REMARK   10  A    between atoms: _19  and  _21
REMARK   11  A    between atoms: _21  and  _22
REMARK   12  A    between atoms: _21  and  _24
REMARK   13  A    between atoms: _24  and  _25
REMARK   14  A    between atoms: _30  and  _32
REMARK   15  A    between atoms: _32  and  _33
REMARK   16  A    between atoms: _32  and  _35
REMARK   17  A    between atoms: _35  and  _36
REMARK   18  A    between atoms: _38  and  _40
REMARK   19  A    between atoms: _40  and  _41
REMARK   20  A    between atoms: _40  and  _43
REMARK   21  A    between atoms: _43  and  _44
REMARK   22  A    between atoms: _46  and  _48
REMARK   23  A    between atoms: _48  and  _49
REMARK   24  A    between atoms: _48  and  _51
REMARK   25  A    between atoms: _51  and  _52
REMARK   26  A    between atoms: _58  and  _60
REMARK   27  A    between atoms: _60  and  _61
REMARK   28  A    between atoms: _64  and  _66
REMARK   29  A    between atoms: _66  and  _67
REMARK   30  A    between atoms: _66  and  _69
REMARK   31  A    between atoms: _69  and  _70
REMARK   32  A    between atoms: _76  and  _78
REMARK   33  A    between atoms: _78  and  _79
REMARK   34  A    between atoms: _78  and  _81
REMARK   35  A    between atoms: _84  and  _86
REMARK   36  A    between atoms: _86  and  _87
REMARK   37  A    between atoms: _86  and  _89
REMARK   38  A    between atoms: _89  and  _90
REMARK   39  A    between atoms: _93  and  _95
REMARK   40  A    between atoms: _95  and  _96
REMARK   41  A    between atoms: _95  and  _98
REMARK   42  A    between atoms: _98  and  _99
REMARK   43  A    between atoms: _104  and  _105
REMARK   44  A    between atoms: _107  and  _109
REMARK   45  A    between atoms: _109  and  _110
REMARK   46  A    between atoms: _113  and  _115
REMARK   47  A    between atoms: _115  and  _116
REMARK   48  A    between atoms: _115  and  _118
REMARK   49  A    between atoms: _121  and  _123
REMARK   50  A    between atoms: _123  and  _124
REMARK   51  A    between atoms: _123  and  _126
REMARK   52  A    between atoms: _128  and  _130
REMARK   53  A    between atoms: _130  and  _131
REMARK   54  A    between atoms: _130  and  _133
REMARK   55  A    between atoms: _133  and  _134
REMARK   56  A    between atoms: _134  and  _135
REMARK   57  A    between atoms: _135  and  _136
REMARK   58  A    between atoms: _145  and  _147
REMARK   59  A    between atoms: _147  and  _148
REMARK   60  A    between atoms: _147  and  _150
REMARK   61  A    between atoms: _150  and  _151
REMARK   62  A    between atoms: _151  and  _152
REMARK   63  A    between atoms: _152  and  _153
REMARK   64  A    between atoms: _153  and  _154
REMARK   65  A    between atoms: _158  and  _160
REMARK   66  A    between atoms: _160  and  _161
REMARK   67  A    between atoms: _160  and  _163
REMARK   68  A    between atoms: _163  and  _164
REMARK   69  A    between atoms: _167  and  _169
REMARK   70  A    between atoms: _169  and  _170
REMARK   71  A    between atoms: _169  and  _172
REMARK   72  A    between atoms: _172  and  _173
REMARK   73  A    between atoms: _176  and  _178
REMARK   74  A    between atoms: _178  and  _179
REMARK   75  A    between atoms: _178  and  _181
REMARK   76  A    between atoms: _181  and  _182
REMARK   77  A    between atoms: _185  and  _187
REMARK   78  A    between atoms: _187  and  _188
REMARK   79  A    between atoms: _187  and  _190
REMARK   80  A    between atoms: _190  and  _191
REMARK   81  A    between atoms: _197  and  _199
REMARK   82  A    between atoms: _199  and  _200
REMARK   83  A    between atoms: _199  and  _202
REMARK   84  A    between atoms: _202  and  _203
REMARK   85  A    between atoms: _206  and  _208
REMARK   86  A    between atoms: _208  and  _209
REMARK   87  A    between atoms: _208  and  _211
REMARK   88  A    between atoms: _211  and  _212
REMARK   89  A    between atoms: _215  and  _217
REMARK   90  A    between atoms: _217  and  _218
REMARK   91  A    between atoms: _217  and  _220
REMARK   92  A    between atoms: _223  and  _225
REMARK   93  A    between atoms: _225  and  _226
REMARK   94  A    between atoms: _225  and  _228
REMARK   95  A    between atoms: _228  and  _229
REMARK   96  A    between atoms: _234  and  _235
REMARK   97  A    between atoms: _237  and  _239
REMARK   98  A    between atoms: _239  and  _240
REMARK   99  A    between atoms: _239  and  _242
REMARK  100  A    between atoms: _244  and  _246
REMARK  101  A    between atoms: _246  and  _247
REMARK  102  A    between atoms: _246  and  _249
REMARK  103  A    between atoms: _249  and  _250
REMARK  104  A    between atoms: _255  and  _256
REMARK  105  A    between atoms: _258  and  _260
REMARK  106  A    between atoms: _260  and  _261
REMARK  107  A    between atoms: _263  and  _265
REMARK  108  A    between atoms: _265  and  _266
REMARK  109  A    between atoms: _265  and  _268
REMARK  110  A    between atoms: _271  and  _273
REMARK  111  A    between atoms: _273  and  _274
REMARK  112  A    between atoms: _277  and  _279
REMARK  113  A    between atoms: _279  and  _280
REMARK  114  A    between atoms: _282  and  _284
REMARK  115  A    between atoms: _284  and  _285
REMARK  116  A    between atoms: _284  and  _287
REMARK  117  A    between atoms: _287  and  _288
REMARK  118  A    between atoms: _291  and  _293
REMARK  119  A    between atoms: _293  and  _294
REMARK  120  A    between atoms: _293  and  _296
REMARK  121  A    between atoms: _299  and  _301
REMARK  122  A    between atoms: _301  and  _302
REMARK  123  A    between atoms: _304  and  _306
REMARK  124  A    between atoms: _306  and  _307
REMARK  125  A    between atoms: _306  and  _309
REMARK  126  A    between atoms: _309  and  _310
REMARK  127  A    between atoms: _310  and  _311
REMARK  128  A    between atoms: _314  and  _316
REMARK  129  A    between atoms: _316  and  _317
REMARK  130  A    between atoms: _316  and  _319
REMARK  131  A    between atoms: _322  and  _324
REMARK  132  A    between atoms: _324  and  _325
REMARK  133  A    between atoms: _324  and  _327
REMARK  134  A    between atoms: _327  and  _328
REMARK  135  A    between atoms: _331  and  _333
REMARK  136  A    between atoms: _333  and  _334
REMARK  137  A    between atoms: _333  and  _336
REMARK  138  A    between atoms: _336  and  _337
REMARK  139  A    between atoms: _340  and  _342
REMARK  140  A    between atoms: _342  and  _343
REMARK  141  A    between atoms: _342  and  _345
REMARK  142  A    between atoms: _345  and  _346
REMARK  143  A    between atoms: _349  and  _351
REMARK  144  A    between atoms: _351  and  _352
REMARK  145  A    between atoms: _351  and  _354
REMARK  146  A    between atoms: _357  and  _359
REMARK  147  A    between atoms: _359  and  _360
REMARK  148  A    between atoms: _363  and  _365
REMARK  149  A    between atoms: _365  and  _366
REMARK  150  A    between atoms: _365  and  _368
REMARK  151  A    between atoms: _368  and  _369
REMARK  152  A    between atoms: _369  and  _370
REMARK  153  A    between atoms: _370  and  _371
REMARK  154  A    between atoms: _380  and  _382
REMARK  155  A    between atoms: _382  and  _383
REMARK  156  A    between atoms: _382  and  _385
REMARK  157  A    between atoms: _385  and  _386
REMARK  158  A    between atoms: _386  and  _387
REMARK  159  A    between atoms: _387  and  _388
REMARK  160  A    between atoms: _397  and  _399
REMARK  161  A    between atoms: _399  and  _400
REMARK  162  A    between atoms: _399  and  _402
REMARK  163  A    between atoms: _402  and  _403
REMARK  164  A    between atoms: _406  and  _408
REMARK  165  A    between atoms: _408  and  _409
REMARK  166  A    between atoms: _411  and  _413
REMARK  167  A    between atoms: _413  and  _414
REMARK  168  A    between atoms: _413  and  _416
REMARK  169  A    between atoms: _416  and  _417
REMARK  170  A    between atoms: _417  and  _418
REMARK  171  A    between atoms: _421  and  _423
REMARK  172  A    between atoms: _423  and  _424
REMARK  173  A    between atoms: _423  and  _426
REMARK  174  A    between atoms: _426  and  _427
REMARK  175  A    between atoms: _429  and  _431
REMARK  176  A    between atoms: _431  and  _432
REMARK  177  A    between atoms: _431  and  _434
REMARK  178  A    between atoms: _434  and  _435
REMARK  179  A    between atoms: _438  and  _440
REMARK  180  A    between atoms: _440  and  _441
REMARK  181  A    between atoms: _440  and  _443
REMARK  182  A    between atoms: _443  and  _444
REMARK  183  A    between atoms: _444  and  _445
REMARK  184  A    between atoms: _450  and  _452
REMARK  185  A    between atoms: _452  and  _453
REMARK  186  A    between atoms: _452  and  _455
REMARK  187  A    between atoms: _455  and  _456
REMARK  188  A    between atoms: _459  and  _461
REMARK  189  A    between atoms: _461  and  _462
REMARK  190  A    between atoms: _461  and  _464
REMARK  191  A    between atoms: _464  and  _465
REMARK  192  A    between atoms: _468  and  _470
REMARK  193  A    between atoms: _470  and  _471
REMARK  194  A    between atoms: _470  and  _473
REMARK  195  A    between atoms: _473  and  _474
REMARK  196  A    between atoms: _479  and  _481
REMARK  197  A    between atoms: _481  and  _482
REMARK  198  A    between atoms: _481  and  _484
REMARK  199  A    between atoms: _484  and  _485
REMARK  200  A    between atoms: _488  and  _490
REMARK  201  A    between atoms: _490  and  _491
REMARK  202  A    between atoms: _490  and  _493
REMARK  203  A    between atoms: _493  and  _494
REMARK  204  A    between atoms: _494  and  _495
REMARK  205  A    between atoms: _495  and  _496
REMARK  206  A    between atoms: _505  and  _507
REMARK  207  A    between atoms: _507  and  _508
REMARK  208  A    between atoms: _507  and  _510
REMARK  209  A    between atoms: _510  and  _511
REMARK  210  A    between atoms: _514  and  _516
REMARK  211  A    between atoms: _516  and  _517
REMARK  212  A    between atoms: _516  and  _519
REMARK  213  A    between atoms: _522  and  _524
REMARK  214  A    between atoms: _524  and  _525
REMARK  215  A    between atoms: _524  and  _527
REMARK  216  A    between atoms: _527  and  _528
REMARK  217  A    between atoms: _534  and  _536
REMARK  218  A    between atoms: _536  and  _537
REMARK  219  A    between atoms: _536  and  _539
REMARK  220  A    between atoms: _539  and  _540
REMARK  221  A    between atoms: _543  and  _545
REMARK  222  A    between atoms: _545  and  _546
REMARK  223  A    between atoms: _549  and  _551
REMARK  224  A    between atoms: _551  and  _552
REMARK  225  A    between atoms: _555  and  _557
REMARK  226  A    between atoms: _557  and  _558
REMARK  227  A    between atoms: _557  and  _560
REMARK  228  A    between atoms: _560  and  _561
REMARK  229  A    between atoms: _566  and  _567
REMARK  230  A    between atoms: _569  and  _571
REMARK  231  A    between atoms: _571  and  _572
REMARK  232  A    between atoms: _571  and  _574
REMARK  233  A    between atoms: _574  and  _575
REMARK                            x       y       z     vdW  Elec       q    Type
REMARK                         _______ _______ _______ _____ _____    ______ ____
ROOT
ATOM      1  CA  ILE A   1     -27.942  -3.863  -3.962  0.00  0.00    +0.133 C 
ENDROOT
BRANCH   1   2
ATOM      2  N   ILE A   1     -28.236  -3.365  -2.643  0.00  0.00    -0.239 NA
ATOM      3  H   ILE A   1     -29.176  -2.970  -2.440  0.00  0.00    +0.142 HD
ENDBRANCH   1   2
BRANCH   1   4
ATOM      4  C   ILE A   1     -26.980  -2.955  -4.646  0.00  0.00    +0.224 C 
ATOM      5  O   ILE A   1     -26.139  -3.394  -5.432  0.00  0.00    -0.287 OA
ENDBRANCH   1   4
BRANCH   1   6
ATOM      6  CB  ILE A   1     -29.212  -4.021  -4.823  0.00  0.00    +0.023 C 
ATOM      7  CG2 ILE A   1     -28.841  -4.259  -6.281  0.00  0.00    +0.002 C 
BRANCH   6   8
ATOM      8  CG1 ILE A   1     -30.033  -5.180  -4.297  0.00  0.00    +0.002 C 
ATOM      9  CD1 ILE A   1     -31.523  -5.015  -4.554  0.00  0.00    +0.000 C 
ENDBRANCH   6   8
ENDBRANCH   1   6
TORSDOF 4
REMARK  Name = ../refined-set-2016/4ea2/4ea2_pocket.pdb
REMARK  233 active torsions:
REMARK  status: ('A' for Active; 'I' for Inactive)
REMARK    1  A    between atoms: _1  and  _3
REMARK    2  A    between atoms: _3  and  _4
REMARK    3  A    between atoms: _3  and  _6
REMARK    4  A    between atoms: _6  and  _7
REMARK    5  A    between atoms: _10  and  _12
REMARK    6  A    between atoms: _12  and  _13
REMARK    7  A    between atoms: _12  and  _15
REMARK    8  A    between atoms: _15  and  _16
REMARK    9  A    between atoms: _16  and  _17
REMARK   10  A    between atoms: _19  and  _21
REMARK   11  A    between atoms: _21  and  _22
REMARK   12  A    between atoms: _21  and  _24
REMARK   13  A    between atoms: _24  and  _25
REMARK   14  A    between atoms: _30  and  _32
REMARK   15  A    between atoms: _32  and  _33
REMARK   16  A    between atoms: _32  and  _35
REMARK   17  A    between atoms: _35  and  _36
REMARK   18  A    between atoms: _38  and  _40
REMARK   19  A    between atoms: _40  and  _41
REMARK   20  A    between atoms: _40  and  _43
REMARK   21  A    between atoms: _43  and  _44
REMARK   22  A    between atoms: _46  and  _48
REMARK   23  A    between atoms: _48  and  _49
REMARK   24  A    between atoms: _48  and  _51
REMARK   25  A    between atoms: _51  and  _52
REMARK   26  A    between atoms: _58  and  _60
REMARK   27  A    between atoms: _60  and  _61
REMARK   28  A    between atoms: _64  and  _66
REMARK   29  A    between atoms: _66  and  _67
REMARK   30  A    between atoms: _66  and  _69
REMARK   31  A    between atoms: _69  and  _70
REMARK   32  A    between atoms: _76  and  _78
REMARK   33  A    between atoms: _78  and  _79
REMARK   34  A    between atoms: _78  and  _81
REMARK   35  A    between atoms: _84  and  _86
REMARK   36  A    between atoms: _86  and  _87
REMARK   37  A    between atoms: _86  and  _89
REMARK   38  A    between atoms: _89  and  _90
REMARK   39  A    between atoms: _93  and  _95
REMARK   40  A    between atoms: _95  and  _96
REMARK   41  A    between atoms: _95  and  _98
REMARK   42  A    between atoms: _98  and  _99
REMARK   43  A    between atoms: _104  and  _105
REMARK   44  A    between atoms: _107  and  _109
REMARK   45  A    between atoms: _109  and  _110
REMARK   46  A    between atoms: _113  and  _115
REMARK   47  A    between atoms: _115  and  _116
REMARK   48  A    between atoms: _115  and  _118
REMARK   49  A    between atoms: _121  and  _123
REMARK   50  A    between atoms: _123  and  _124
REMARK   51  A    between atoms: _123  and  _126
REMARK   52  A    between atoms: _128  and  _130
REMARK   53  A    between atoms: _130  and  _131
REMARK   54  A    between atoms: _130  and  _133
REMARK   55  A    between atoms: _133  and  _134
REMARK   56  A    between atoms: _134  and  _135
REMARK   57  A    between atoms: _135  and  _136
REMARK   58  A    between atoms: _145  and  _147
REMARK   59  A    between atoms: _147  and  _148
REMARK   60  A    between atoms: _147  and  _150
REMARK   61  A    between atoms: _150  and  _151
REMARK   62  A    between atoms: _151  and  _152
REMARK   63  A    between atoms: _152  and  _153
REMARK   64  A    between atoms: _153  and  _154
REMARK   65  A    between atoms: _158  and  _160
REMARK   66  A    between atoms: _160  and  _161
REMARK   67  A    between atoms: _160  and  _163
REMARK   68  A    between atoms: _163  and  _164
REMARK   69  A    between atoms: _167  and  _169
REMARK   70  A    between atoms: _169  and  _170
REMARK   71  A    between atoms: _169  and  _172
REMARK   72  A    between atoms: _172  and  _173
REMARK   73  A    between atoms: _176  and  _178
REMARK   74  A    between atoms: _178  and  _179
REMARK   75  A    between atoms: _178  and  _181
REMARK   76  A    between atoms: _181  and  _182
REMARK   77  A    between atoms: _185  and  _187
REMARK   78  A    between atoms: _187  and  _188
REMARK   79  A    between atoms: _187  and  _190
REMARK   80  A    between atoms: _190  and  _191
REMARK   81  A    between atoms: _197  and  _199
REMARK   82  A    between atoms: _199  and  _200
REMARK   83  A    between atoms: _199  and  _202
REMARK   84  A    between atoms: _202  and  _203
REMARK   85  A    between atoms: _206  and  _208
REMARK   86  A    between atoms: _208  and  _209
REMARK   87  A    between atoms: _208  and  _211
REMARK   88  A    between atoms: _211  and  _212
REMARK   89  A    between atoms: _215  and  _217
REMARK   90  A    between atoms: _217  and  _218
REMARK   91  A    between atoms: _217  and  _220
REMARK   92  A    between atoms: _223  and  _225
REMARK   93  A    between atoms: _225  and  _226
REMARK   94  A    between atoms: _225  and  _228
REMARK   95  A    between atoms: _228  and  _229
REMARK   96  A    between atoms: _234  and  _235
REMARK   97  A    between atoms: _237  and  _239
REMARK   98  A    between atoms: _239  and  _240
REMARK   99  A    between atoms: _239  and  _242
REMARK  100  A    between atoms: _244  and  _246
REMARK  101  A    between atoms: _246  and  _247
REMARK  102  A    between atoms: _246  and  _249
REMARK  103  A    between atoms: _249  and  _250
REMARK  104  A    between atoms: _255  and  _256
REMARK  105  A    between atoms: _258  and  _260
REMARK  106  A    between atoms: _260  and  _261
REMARK  107  A    between atoms: _263  and  _265
REMARK  108  A    between atoms: _265  and  _266
REMARK  109  A    between atoms: _265  and  _268
REMARK  110  A    between atoms: _271  and  _273
REMARK  111  A    between atoms: _273  and  _274
REMARK  112  A    between atoms: _277  and  _279
REMARK  113  A    between atoms: _279  and  _280
REMARK  114  A    between atoms: _282  and  _284
REMARK  115  A    between atoms: _284  and  _285
REMARK  116  A    between atoms: _284  and  _287
REMARK  117  A    between atoms: _287  and  _288
REMARK  118  A    between atoms: _291  and  _293
REMARK  119  A    between atoms: _293  and  _294
REMARK  120  A    between atoms: _293  and  _296
REMARK  121  A    between atoms: _299  and  _301
REMARK  122  A    between atoms: _301  and  _302
REMARK  123  A    between atoms: _304  and  _306
REMARK  124  A    between atoms: _306  and  _307
REMARK  125  A    between atoms: _306  and  _309
REMARK  126  A    between atoms: _309  and  _310
REMARK  127  A    between atoms: _310  and  _311
REMARK  128  A    between atoms: _314  and  _316
REMARK  129  A    between atoms: _316  and  _317
REMARK  130  A    between atoms: _316  and  _319
REMARK  131  A    between atoms: _322  and  _324
REMARK  132  A    between atoms: _324  and  _325
REMARK  133  A    between atoms: _324  and  _327
REMARK  134  A    between atoms: _327  and  _328
REMARK  135  A    between atoms: _331  and  _333
REMARK  136  A    between atoms: _333  and  _334
REMARK  137  A    between atoms: _333  and  _336
REMARK  138  A    between atoms: _336  and  _337
REMARK  139  A    between atoms: _340  and  _342
REMARK  140  A    between atoms: _342  and  _343
REMARK  141  A    between atoms: _342  and  _345
REMARK  142  A    between atoms: _345  and  _346
REMARK  143  A    between atoms: _349  and  _351
REMARK  144  A    between atoms: _351  and  _352
REMARK  145  A    between atoms: _351  and  _354
REMARK  146  A    between atoms: _357  and  _359
REMARK  147  A    between atoms: _359  and  _360
REMARK  148  A    between atoms: _363  and  _365
REMARK  149  A    between atoms: _365  and  _366
REMARK  150  A    between atoms: _365  and  _368
REMARK  151  A    between atoms: _368  and  _369
REMARK  152  A    between atoms: _369  and  _370
REMARK  153  A    between atoms: _370  and  _371
REMARK  154  A    between atoms: _380  and  _382
REMARK  155  A    between atoms: _382  and  _383
REMARK  156  A    between atoms: _382  and  _385
REMARK  157  A    between atoms: _385  and  _386
REMARK  158  A    between atoms: _386  and  _387
REMARK  159  A    between atoms: _387  and  _388
REMARK  160  A    between atoms: _397  and  _399
REMARK  161  A    between atoms: _399  and  _400
REMARK  162  A    between atoms: _399  and  _402
REMARK  163  A    between atoms: _402  and  _403
REMARK  164  A    between atoms: _406  and  _408
REMARK  165  A    between atoms: _408  and  _409
REMARK  166  A    between atoms: _411  and  _413
REMARK  167  A    between atoms: _413  and  _414
REMARK  168  A    between atoms: _413  and  _416
REMARK  169  A    between atoms: _416  and  _417
REMARK  170  A    between atoms: _417  and  _418
REMARK  171  A    between atoms: _421  and  _423
REMARK  172  A    between atoms: _423  and  _424
REMARK  173  A    between atoms: _423  and  _426
REMARK  174  A    between atoms: _426  and  _427
REMARK  175  A    between atoms: _429  and  _431
REMARK  176  A    between atoms: _431  and  _432
REMARK  177  A    between atoms: _431  and  _434
REMARK  178  A    between atoms: _434  and  _435
REMARK  179  A    between atoms: _438  and  _440
REMARK  180  A    between atoms: _440  and  _441
REMARK  181  A    between atoms: _440  and  _443
REMARK  182  A    between atoms: _443  and  _444
REMARK  183  A    between atoms: _444  and  _445
REMARK  184  A    between atoms: _450  and  _452
REMARK  185  A    between atoms: _452  and  _453
REMARK  186  A    between atoms: _452  and  _455
REMARK  187  A    between atoms: _455  and  _456
REMARK  188  A    between atoms: _459  and  _461
REMARK  189  A    between atoms: _461  and  _462
REMARK  190  A    between atoms: _461  and  _464
REMARK  191  A    between atoms: _464  and  _465
REMARK  192  A    between atoms: _468  and  _470
REMARK  193  A    between atoms: _470  and  _471
REMARK  194  A    between atoms: _470  and  _473
REMARK  195  A    between atoms: _473  and  _474
REMARK  196  A    between atoms: _479  and  _481
REMARK  197  A    between atoms: _481  and  _482
REMARK  198  A    between atoms: _481  and  _484
REMARK  199  A    between atoms: _484  and  _485
REMARK  200  A    between atoms: _488  and  _490
REMARK  201  A    between atoms: _490  and  _491
REMARK  202  A    between atoms: _490  and  _493
REMARK  203  A    between atoms: _493  and  _494
REMARK  204  A    between atoms: _494  and  _495
REMARK  205  A    between atoms: _495  and  _496
REMARK  206  A    between atoms: _505  and  _507
REMARK  207  A    between atoms: _507  and  _508
REMARK  208  A    between atoms: _507  and  _510
REMARK  209  A    between atoms: _510  and  _511
REMARK  210  A    between atoms: _514  and  _516
REMARK  211  A    between atoms: _516  and  _517
REMARK  212  A    between atoms: _516  and  _519
REMARK  213  A    between atoms: _522  and  _524
REMARK  214  A    between atoms: _524  and  _525
REMARK  215  A    between atoms: _524  and  _527
REMARK  216  A    between atoms: _527  and  _528
REMARK  217  A    between atoms: _534  and  _536
REMARK  218  A    between atoms: _536  and  _537
REMARK  219  A    between atoms: _536  and  _539
REMARK  220  A    between atoms: _539  and  _540
REMARK  221  A    between atoms: _543  and  _545
REMARK  222  A    between atoms: _545  and  _546
REMARK  223  A    between atoms: _549  and  _551
REMARK  224  A    between atoms: _551  and  _552
REMARK  225  A    between atoms: _555  and  _557
REMARK  226  A    between atoms: _557  and  _558
REMARK  227  A    between atoms: _557  and  _560
REMARK  228  A    between atoms: _560  and  _561
REMARK  229  A    between atoms: _566  and  _567
REMARK  230  A    between atoms: _569  and  _571
REMARK  231  A    between atoms: _571  and  _572
REMARK  232  A    between atoms: _571  and  _574
REMARK  233  A    between atoms: _574  and  _575
REMARK                            x       y       z     vdW  Elec       q    Type
REMARK                         _______ _______ _______ _____ _____    ______ ____
ROOT
ATOM      1  C   ALA A   1     -22.583  -5.043  -4.956  0.00  0.00    +0.000 C 
ATOM      2  O   ALA A   1     -21.478  -5.508  -5.283  0.00  0.00    +0.000 OA
ATOM      3  N   ALA A   2     -23.301  -4.293  -5.772  0.00  0.00    +0.000 N 
ATOM      4  H   ALA A   2     -24.182  -3.854  -5.437  0.00  0.00    +0.000 HD
ENDROOT
BRANCH   1   5
ATOM      5  CA  ALA A   1     -23.140  -5.223  -3.562  0.00  0.00    +0.000 C 
ATOM      6  CB  ALA A   1     -24.281  -6.247  -3.563  0.00  0.00    +0.000 C 
BRANCH   5   7
ATOM      7  N   ALA A   1     -23.602  -3.948  -3.011  0.00  0.00    +0.000 NA
ATOM      8  H   ALA A   1     -24.557  -3.890  -2.604  0.00  0.00    +0.000 HD
ENDBRANCH   5   7
ENDBRANCH   1   5
BRANCH   3   9
ATOM      9  CA  ALA A   2     -22.859  -4.085  -7.128  0.00  0.00    +0.000 C 
ATOM     10  CB  ALA A   2     -23.949  -3.454  -7.967  0.00  0.00    +0.000 C 
BRANCH   9  11
ATOM     11  C   ALA A   2     -21.612  -3.234  -7.173  0.00  0.00    +0.000 C 
ATOM     12  O   ALA A   2     -20.748  -3.434  -8.045  0.00  0.00    +0.000 OA
ENDBRANCH   9  11
ENDBRANCH   3   9
TORSDOF 4
REMARK  Name = ../refined-set-2016/4ea2/4ea2_pocket.pdb
REMARK  233 active torsions:
REMARK  status: ('A' for Active; 'I' for Inactive)
REMARK    1  A    between atoms: _1  and  _3
REMARK    2  A    between atoms: _3  and  _4
REMARK    3  A    between atoms: _3  and  _6
REMARK    4  A    between atoms: _6  and  _7
REMARK    5  A    between atoms: _10  and  _12
REMARK    6  A    between atoms: _12  and  _13
REMARK    7  A    between atoms: _12  and  _15
REMARK    8  A    between atoms: _15  and  _16
REMARK    9  A    between atoms: _16  and  _17
REMARK   10  A    between atoms: _19  and  _21
REMARK   11  A    between atoms: _21  and  _22
REMARK   12  A    between atoms: _21  and  _24
REMARK   13  A    between atoms: _24  and  _25
REMARK   14  A    between atoms: _30  and  _32
REMARK   15  A    between atoms: _32  and  _33
REMARK   16  A    between atoms: _32  and  _35
REMARK   17  A    between atoms: _35  and  _36
REMARK   18  A    between atoms: _38  and  _40
REMARK   19  A    between atoms: _40  and  _41
REMARK   20  A    between atoms: _40  and  _43
REMARK   21  A    between atoms: _43  and  _44
REMARK   22  A    between atoms: _46  and  _48
REMARK   23  A    between atoms: _48  and  _49
REMARK   24  A    between atoms: _48  and  _51
REMARK   25  A    between atoms: _51  and  _52
REMARK   26  A    between atoms: _58  and  _60
REMARK   27  A    between atoms: _60  and  _61
REMARK   28  A    between atoms: _64  and  _66
REMARK   29  A    between atoms: _66  and  _67
REMARK   30  A    between atoms: _66  and  _69
REMARK   31  A    between atoms: _69  and  _70
REMARK   32  A    between atoms: _76  and  _78
REMARK   33  A    between atoms: _78  and  _79
REMARK   34  A    between atoms: _78  and  _81
REMARK   35  A    between atoms: _84  and  _86
REMARK   36  A    between atoms: _86  and  _87
REMARK   37  A    between atoms: _86  and  _89
REMARK   38  A    between atoms: _89  and  _90
REMARK   39  A    between atoms: _93  and  _95
REMARK   40  A    between atoms: _95  and  _96
REMARK   41  A    between atoms: _95  and  _98
REMARK   42  A    between atoms: _98  and  _99
REMARK   43  A    between atoms: _104  and  _105
REMARK   44  A    between atoms: _107  and  _109
REMARK   45  A    between atoms: _109  and  _110
REMARK   46  A    between atoms: _113  and  _115
REMARK   47  A    between atoms: _115  and  _116
REMARK   48  A    between atoms: _115  and  _118
REMARK   49  A    between atoms: _121  and  _123
REMARK   50  A    between atoms: _123  and  _124
REMARK   51  A    between atoms: _123  and  _126
REMARK   52  A    between atoms: _128  and  _130
REMARK   53  A    between atoms: _130  and  _131
REMARK   54  A    between atoms: _130  and  _133
REMARK   55  A    between atoms: _133  and  _134
REMARK   56  A    between atoms: _134  and  _135
REMARK   57  A    between atoms: _135  and  _136
REMARK   58  A    between atoms: _145  and  _147
REMARK   59  A    between atoms: _147  and  _148
REMARK   60  A    between atoms: _147  and  _150
REMARK   61  A    between atoms: _150  and  _151
REMARK   62  A    between atoms: _151  and  _152
REMARK   63  A    between atoms: _152  and  _153
REMARK   64  A    between atoms: _153  and  _154
REMARK   65  A    between atoms: _158  and  _160
REMARK   66  A    between atoms: _160  and  _161
REMARK   67  A    between atoms: _160  and  _163
REMARK   68  A    between atoms: _163  and  _164
REMARK   69  A    between atoms: _167  and  _169
REMARK   70  A    between atoms: _169  and  _170
REMARK   71  A    between atoms: _169  and  _172
REMARK   72  A    between atoms: _172  and  _173
REMARK   73  A    between atoms: _176  and  _178
REMARK   74  A    between atoms: _178  and  _179
REMARK   75  A    between atoms: _178  and  _181
REMARK   76  A    between atoms: _181  and  _182
REMARK   77  A    between atoms: _185  and  _187
REMARK   78  A    between atoms: _187  and  _188
REMARK   79  A    between atoms: _187  and  _190
REMARK   80  A    between atoms: _190  and  _191
REMARK   81  A    between atoms: _197  and  _199
REMARK   82  A    between atoms: _199  and  _200
REMARK   83  A    between atoms: _199  and  _202
REMARK   84  A    between atoms: _202  and  _203
REMARK   85  A    between atoms: _206  and  _208
REMARK   86  A    between atoms: _208  and  _209
REMARK   87  A    between atoms: _208  and  _211
REMARK   88  A    between atoms: _211  and  _212
REMARK   89  A    between atoms: _215  and  _217
REMARK   90  A    between atoms: _217  and  _218
REMARK   91  A    between atoms: _217  and  _220
REMARK   92  A    between atoms: _223  and  _225
REMARK   93  A    between atoms: _225  and  _226
REMARK   94  A    between atoms: _225  and  _228
REMARK   95  A    between atoms: _228  and  _229
REMARK   96  A    between atoms: _234  and  _235
REMARK   97  A    between atoms: _237  and  _239
REMARK   98  A    between atoms: _239  and  _240
REMARK   99  A    between atoms: _239  and  _242
REMARK  100  A    between atoms: _244  and  _246
REMARK  101  A    between atoms: _246  and  _247
REMARK  102  A    between atoms: _246  and  _249
REMARK  103  A    between atoms: _249  and  _250
REMARK  104  A    between atoms: _255  and  _256
REMARK  105  A    between atoms: _258  and  _260
REMARK  106  A    between atoms: _260  and  _261
REMARK  107  A    between atoms: _263  and  _265
REMARK  108  A    between atoms: _265  and  _266
REMARK  109  A    between atoms: _265  and  _268
REMARK  110  A    between atoms: _271  and  _273
REMARK  111  A    between atoms: _273  and  _274
REMARK  112  A    between atoms: _277  and  _279
REMARK  113  A    between atoms: _279  and  _280
REMARK  114  A    between atoms: _282  and  _284
REMARK  115  A    between atoms: _284  and  _285
REMARK  116  A    between atoms: _284  and  _287
REMARK  117  A    between atoms: _287  and  _288
REMARK  118  A    between atoms: _291  and  _293
REMARK  119  A    between atoms: _293  and  _294
REMARK  120  A    between atoms: _293  and  _296
REMARK  121  A    between atoms: _299  and  _301
REMARK  122  A    between atoms: _301  and  _302
REMARK  123  A    between atoms: _304  and  _306
REMARK  124  A    between atoms: _306  and  _307
REMARK  125  A    between atoms: _306  and  _309
REMARK  126  A    between atoms: _309  and  _310
REMARK  127  A    between atoms: _310  and  _311
REMARK  128  A    between atoms: _314  and  _316
REMARK  129  A    between atoms: _316  and  _317
REMARK  130  A    between atoms: _316  and  _319
REMARK  131  A    between atoms: _322  and  _324
REMARK  132  A    between atoms: _324  and  _325
REMARK  133  A    between atoms: _324  and  _327
REMARK  134  A    between atoms: _327  and  _328
REMARK  135  A    between atoms: _331  and  _333
REMARK  136  A    between atoms: _333  and  _334
REMARK  137  A    between atoms: _333  and  _336
REMARK  138  A    between atoms: _336  and  _337
REMARK  139  A    between atoms: _340  and  _342
REMARK  140  A    between atoms: _342  and  _343
REMARK  141  A    between atoms: _342  and  _345
REMARK  142  A    between atoms: _345  and  _346
REMARK  143  A    between atoms: _349  and  _351
REMARK  144  A    between atoms: _351  and  _352
REMARK  145  A    between atoms: _351  and  _354
REMARK  146  A    between atoms: _357  and  _359
REMARK  147  A    between atoms: _359  and  _360
REMARK  148  A    between atoms: _363  and  _365
REMARK  149  A    between atoms: _365  and  _366
REMARK  150  A    between atoms: _365  and  _368
REMARK  151  A    between atoms: _368  and  _369
REMARK  152  A    between atoms: _369  and  _370
REMARK  153  A    between atoms: _370  and  _371
REMARK  154  A    between atoms: _380  and  _382
REMARK  155  A    between atoms: _382  and  _383
REMARK  156  A    between atoms: _382  and  _385
REMARK  157  A    between atoms: _385  and  _386
REMARK  158  A    between atoms: _386  and  _387
REMARK  159  A    between atoms: _387  and  _388
REMARK  160  A    between atoms: _397  and  _399
REMARK  161  A    between atoms: _399  and  _400
REMARK  162  A    between atoms: _399  and  _402
REMARK  163  A    between atoms: _402  and  _403
REMARK  164  A    between atoms: _406  and  _408
REMARK  165  A    between atoms: _408  and  _409
REMARK  166  A    between atoms: _411  and  _413
REMARK  167  A    between atoms: _413  and  _414
REMARK  168  A    between atoms: _413  and  _416
REMARK  169  A    between atoms: _416  and  _417
REMARK  170  A    between atoms: _417  and  _418
REMARK  171  A    between atoms: _421  and  _423
REMARK  172  A    between atoms: _423  and  _424
REMARK  173  A    between atoms: _423  and  _426
REMARK  174  A    between atoms: _426  and  _427
REMARK  175  A    between atoms: _429  and  _431
REMARK  176  A    between atoms: _431  and  _432
REMARK  177  A    between atoms: _431  and  _434
REMARK  178  A    between atoms: _434  and  _435
REMARK  179  A    between atoms: _438  and  _440
REMARK  180  A    between atoms: _440  and  _441
REMARK  181  A    between atoms: _440  and  _443
REMARK  182  A    between atoms: _443  and  _444
REMARK  183  A    between atoms: _444  and  _445
REMARK  184  A    between atoms: _450  and  _452
REMARK  185  A    between atoms: _452  and  _453
REMARK  186  A    between atoms: _452  and  _455
REMARK  187  A    between atoms: _455  and  _456
REMARK  188  A    between atoms: _459  and  _461
REMARK  189  A    between atoms: _461  and  _462
REMARK  190  A    between atoms: _461  and  _464
REMARK  191  A    between atoms: _464  and  _465
REMARK  192  A    between atoms: _468  and  _470
REMARK  193  A    between atoms: _470  and  _471
REMARK  194  A    between atoms: _470  and  _473
REMARK  195  A    between atoms: _473  and  _474
REMARK  196  A    between atoms: _479  and  _481
REMARK  197  A    between atoms: _481  and  _482
REMARK  198  A    between atoms: _481  and  _484
REMARK  199  A    between atoms: _484  and  _485
REMARK  200  A    between atoms: _488  and  _490
REMARK  201  A    between atoms: _490  and  _491
REMARK  202  A    between atoms: _490  and  _493
REMARK  203  A    between atoms: _493  and  _494
REMARK  204  A    between atoms: _494  and  _495
REMARK  205  A    between atoms: _495  and  _496
REMARK  206  A    between atoms: _505  and  _507
REMARK  207  A    between atoms: _507  and  _508
REMARK  208  A    between atoms: _507  and  _510
REMARK  209  A    between atoms: _510  and  _511
REMARK  210  A    between atoms: _514  and  _516
REMARK  211  A    between atoms: _516  and  _517
REMARK  212  A    between atoms: _516  and  _519
REMARK  213  A    between atoms: _522  and  _524
REMARK  214  A    between atoms: _524  and  _525
REMARK  215  A    between atoms: _524  and  _527
REMARK  216  A    between atoms: _527  and  _528
REMARK  217  A    between atoms: _534  and  _536
REMARK  218  A    between atoms: _536  and  _537
REMARK  219  A    between atoms: _536  and  _539
REMARK  220  A    between atoms: _539  and  _540
REMARK  221  A    between atoms: _543  and  _545
REMARK  222  A    between atoms: _545  and  _546
REMARK  223  A    between atoms: _549  and  _551
REMARK  224  A    between atoms: _551  and  _552
REMARK  225  A    between atoms: _555  and  _557
REMARK  226  A    between atoms: _557  and  _558
REMARK  227  A    between atoms: _557  and  _560
REMARK  228  A    between atoms: _560  and  _561
REMARK  229  A    between atoms: _566  and  _567
REMARK  230  A    between atoms: _569  and  _571
REMARK  231  A    between atoms: _571  and  _572
REMARK  232  A    between atoms: _571  and  _574
REMARK  233  A    between atoms: _574  and  _575
REMARK                            x       y       z     vdW  Elec       q    Type
REMARK                         _______ _______ _______ _____ _____    ______ ____
ROOT
ATOM      1  CG  TYR A   1     -19.061  -8.516  -7.492  0.00  0.00    +0.000 A 
ATOM      2  CD2 TYR A   1     -18.877  -9.043  -6.215  0.00  0.00    +0.000 A 
ATOM      3  CE2 TYR A   1     -18.428 -10.343  -6.037  0.00  0.00    +0.000 A 
ATOM      4  CZ  TYR A   1     -18.137 -11.110  -7.151  0.00  0.00    +0.000 A 
ATOM      5  CE1 TYR A   1     -18.309 -10.588  -8.421  0.00  0.00    +0.000 A 
ATOM      6  CD1 TYR A   1     -18.696  -9.285  -8.572  0.00  0.00    +0.000 A 
ENDROOT
BRANCH   4   7
ATOM      7  OH  TYR A   1     -17.734 -12.428  -7.028  0.00  0.00    +0.000 OA
ATOM      8  HH  TYR A   1     -18.442 -12.947  -6.571  0.00  0.00    +0.000 HD
ENDBRANCH   4   7
BRANCH   1   9
ATOM      9  CB  TYR A   1     -19.374  -7.074  -7.677  0.00  0.00    +0.000 C 
BRANCH   9  10
ATOM     10  CA  TYR A   1     -18.189  -6.223  -7.215  0.00  0.00    +0.000 C 
BRANCH  10  11
ATOM     11  N   TYR A   1     -18.568  -5.322  -6.137  0.00  0.00    +0.000 NA
ATOM     12  H   TYR A   1     -19.562  -5.281  -5.834  0.00  0.00    +0.000 HD
ENDBRANCH  10  11
BRANCH  10  13
ATOM     13  C   TYR A   1     -17.567  -5.506  -8.387  0.00  0.00    +0.000 C 
ATOM     14  O   TYR A   1     -16.582  -5.972  -8.968  0.00  0.00    +0.000 OA
ENDBRANCH  10  13
ENDBRANCH   9  10
ENDBRANCH   1   9
TORSDOF 5
REMARK  Name = ../refined-set-2016/4ea2/4ea2_pocket.pdb
REMARK  233 active torsions:
REMARK  status: ('A' for Active; 'I' for Inactive)
REMARK    1  A    between atoms: _1  and  _3
REMARK    2  A    between atoms: _3  and  _4
REMARK    3  A    between atoms: _3  and  _6
REMARK    4  A    between atoms: _6  and  _7
REMARK    5  A    between atoms: _10  and  _12
REMARK    6  A    between atoms: _12  and  _13
REMARK    7  A    between atoms: _12  and  _15
REMARK    8  A    between atoms: _15  and  _16
REMARK    9  A    between atoms: _16  and  _17
REMARK   10  A    between atoms: _19  and  _21
REMARK   11  A    between atoms: _21  and  _22
REMARK   12  A    between atoms: _21  and  _24
REMARK   13  A    between atoms: _24  and  _25
REMARK   14  A    between atoms: _30  and  _32
REMARK   15  A    between atoms: _32  and  _33
REMARK   16  A    between atoms: _32  and  _35
REMARK   17  A    between atoms: _35  and  _36
REMARK   18  A    between atoms: _38  and  _40
REMARK   19  A    between atoms: _40  and  _41
REMARK   20  A    between atoms: _40  and  _43
REMARK   21  A    between atoms: _43  and  _44
REMARK   22  A    between atoms: _46  and  _48
REMARK   23  A    between atoms: _48  and  _49
REMARK   24  A    between atoms: _48  and  _51
REMARK   25  A    between atoms: _51  and  _52
REMARK   26  A    between atoms: _58  and  _60
REMARK   27  A    between atoms: _60  and  _61
REMARK   28  A    between atoms: _64  and  _66
REMARK   29  A    between atoms: _66  and  _67
REMARK   30  A    between atoms: _66  and  _69
REMARK   31  A    between atoms: _69  and  _70
REMARK   32  A    between atoms: _76  and  _78
REMARK   33  A    between atoms: _78  and  _79
REMARK   34  A    between atoms: _78  and  _81
REMARK   35  A    between atoms: _84  and  _86
REMARK   36  A    between atoms: _86  and  _87
REMARK   37  A    between atoms: _86  and  _89
REMARK   38  A    between atoms: _89  and  _90
REMARK   39  A    between atoms: _93  and  _95
REMARK   40  A    between atoms: _95  and  _96
REMARK   41  A    between atoms: _95  and  _98
REMARK   42  A    between atoms: _98  and  _99
REMARK   43  A    between atoms: _104  and  _105
REMARK   44  A    between atoms: _107  and  _109
REMARK   45  A    between atoms: _109  and  _110
REMARK   46  A    between atoms: _113  and  _115
REMARK   47  A    between atoms: _115  and  _116
REMARK   48  A    between atoms: _115  and  _118
REMARK   49  A    between atoms: _121  and  _123
REMARK   50  A    between atoms: _123  and  _124
REMARK   51  A    between atoms: _123  and  _126
REMARK   52  A    between atoms: _128  and  _130
REMARK   53  A    between atoms: _130  and  _131
REMARK   54  A    between atoms: _130  and  _133
REMARK   55  A    between atoms: _133  and  _134
REMARK   56  A    between atoms: _134  and  _135
REMARK   57  A    between atoms: _135  and  _136
REMARK   58  A    between atoms: _145  and  _147
REMARK   59  A    between atoms: _147  and  _148
REMARK   60  A    between atoms: _147  and  _150
REMARK   61  A    between atoms: _150  and  _151
REMARK   62  A    between atoms: _151  and  _152
REMARK   63  A    between atoms: _152  and  _153
REMARK   64  A    between atoms: _153  and  _154
REMARK   65  A    between atoms: _158  and  _160
REMARK   66  A    between atoms: _160  and  _161
REMARK   67  A    between atoms: _160  and  _163
REMARK   68  A    between atoms: _163  and  _164
REMARK   69  A    between atoms: _167  and  _169
REMARK   70  A    between atoms: _169  and  _170
REMARK   71  A    between atoms: _169  and  _172
REMARK   72  A    between atoms: _172  and  _173
REMARK   73  A    between atoms: _176  and  _178
REMARK   74  A    between atoms: _178  and  _179
REMARK   75  A    between atoms: _178  and  _181
REMARK   76  A    between atoms: _181  and  _182
REMARK   77  A    between atoms: _185  and  _187
REMARK   78  A    between atoms: _187  and  _188
REMARK   79  A    between atoms: _187  and  _190
REMARK   80  A    between atoms: _190  and  _191
REMARK   81  A    between atoms: _197  and  _199
REMARK   82  A    between atoms: _199  and  _200
REMARK   83  A    between atoms: _199  and  _202
REMARK   84  A    between atoms: _202  and  _203
REMARK   85  A    between atoms: _206  and  _208
REMARK   86  A    between atoms: _208  and  _209
REMARK   87  A    between atoms: _208  and  _211
REMARK   88  A    between atoms: _211  and  _212
REMARK   89  A    between atoms: _215  and  _217
REMARK   90  A    between atoms: _217  and  _218
REMARK   91  A    between atoms: _217  and  _220
REMARK   92  A    between atoms: _223  and  _225
REMARK   93  A    between atoms: _225  and  _226
REMARK   94  A    between atoms: _225  and  _228
REMARK   95  A    between atoms: _228  and  _229
REMARK   96  A    between atoms: _234  and  _235
REMARK   97  A    between atoms: _237  and  _239
REMARK   98  A    between atoms: _239  and  _240
REMARK   99  A    between atoms: _239  and  _242
REMARK  100  A    between atoms: _244  and  _246
REMARK  101  A    between atoms: _246  and  _247
REMARK  102  A    between atoms: _246  and  _249
REMARK  103  A    between atoms: _249  and  _250
REMARK  104  A    between atoms: _255  and  _256
REMARK  105  A    between atoms: _258  and  _260
REMARK  106  A    between atoms: _260  and  _261
REMARK  107  A    between atoms: _263  and  _265
REMARK  108  A    between atoms: _265  and  _266
REMARK  109  A    between atoms: _265  and  _268
REMARK  110  A    between atoms: _271  and  _273
REMARK  111  A    between atoms: _273  and  _274
REMARK  112  A    between atoms: _277  and  _279
REMARK  113  A    between atoms: _279  and  _280
REMARK  114  A    between atoms: _282  and  _284
REMARK  115  A    between atoms: _284  and  _285
REMARK  116  A    between atoms: _284  and  _287
REMARK  117  A    between atoms: _287  and  _288
REMARK  118  A    between atoms: _291  and  _293
REMARK  119  A    between atoms: _293  and  _294
REMARK  120  A    between atoms: _293  and  _296
REMARK  121  A    between atoms: _299  and  _301
REMARK  122  A    between atoms: _301  and  _302
REMARK  123  A    between atoms: _304  and  _306
REMARK  124  A    between atoms: _306  and  _307
REMARK  125  A    between atoms: _306  and  _309
REMARK  126  A    between atoms: _309  and  _310
REMARK  127  A    between atoms: _310  and  _311
REMARK  128  A    between atoms: _314  and  _316
REMARK  129  A    between atoms: _316  and  _317
REMARK  130  A    between atoms: _316  and  _319
REMARK  131  A    between atoms: _322  and  _324
REMARK  132  A    between atoms: _324  and  _325
REMARK  133  A    between atoms: _324  and  _327
REMARK  134  A    between atoms: _327  and  _328
REMARK  135  A    between atoms: _331  and  _333
REMARK  136  A    between atoms: _333  and  _334
REMARK  137  A    between atoms: _333  and  _336
REMARK  138  A    between atoms: _336  and  _337
REMARK  139  A    between atoms: _340  and  _342
REMARK  140  A    between atoms: _342  and  _343
REMARK  141  A    between atoms: _342  and  _345
REMARK  142  A    between atoms: _345  and  _346
REMARK  143  A    between atoms: _349  and  _351
REMARK  144  A    between atoms: _351  and  _352
REMARK  145  A    between atoms: _351  and  _354
REMARK  146  A    between atoms: _357  and  _359
REMARK  147  A    between atoms: _359  and  _360
REMARK  148  A    between atoms: _363  and  _365
REMARK  149  A    between atoms: _365  and  _366
REMARK  150  A    between atoms: _365  and  _368
REMARK  151  A    between atoms: _368  and  _369
REMARK  152  A    between atoms: _369  and  _370
REMARK  153  A    between atoms: _370  and  _371
REMARK  154  A    between atoms: _380  and  _382
REMARK  155  A    between atoms: _382  and  _383
REMARK  156  A    between atoms: _382  and  _385
REMARK  157  A    between atoms: _385  and  _386
REMARK  158  A    between atoms: _386  and  _387
REMARK  159  A    between atoms: _387  and  _388
REMARK  160  A    between atoms: _397  and  _399
REMARK  161  A    between atoms: _399  and  _400
REMARK  162  A    between atoms: _399  and  _402
REMARK  163  A    between atoms: _402  and  _403
REMARK  164  A    between atoms: _406  and  _408
REMARK  165  A    between atoms: _408  and  _409
REMARK  166  A    between atoms: _411  and  _413
REMARK  167  A    between atoms: _413  and  _414
REMARK  168  A    between atoms: _413  and  _416
REMARK  169  A    between atoms: _416  and  _417
REMARK  170  A    between atoms: _417  and  _418
REMARK  171  A    between atoms: _421  and  _423
REMARK  172  A    between atoms: _423  and  _424
REMARK  173  A    between atoms: _423  and  _426
REMARK  174  A    between atoms: _426  and  _427
REMARK  175  A    between atoms: _429  and  _431
REMARK  176  A    between atoms: _431  and  _432
REMARK  177  A    between atoms: _431  and  _434
REMARK  178  A    between atoms: _434  and  _435
REMARK  179  A    between atoms: _438  and  _440
REMARK  180  A    between atoms: _440  and  _441
REMARK  181  A    between atoms: _440  and  _443
REMARK  182  A    between atoms: _443  and  _444
REMARK  183  A    between atoms: _444  and  _445
REMARK  184  A    between atoms: _450  and  _452
REMARK  185  A    between atoms: _452  and  _453
REMARK  186  A    between atoms: _452  and  _455
REMARK  187  A    between atoms: _455  and  _456
REMARK  188  A    between atoms: _459  and  _461
REMARK  189  A    between atoms: _461  and  _462
REMARK  190  A    between atoms: _461  and  _464
REMARK  191  A    between atoms: _464  and  _465
REMARK  192  A    between atoms: _468  and  _470
REMARK  193  A    between atoms: _470  and  _471
REMARK  194  A    between atoms: _470  and  _473
REMARK  195  A    between atoms: _473  and  _474
REMARK  196  A    between atoms: _479  and  _481
REMARK  197  A    between atoms: _481  and  _482
REMARK  198  A    between atoms: _481  and  _484
REMARK  199  A    between atoms: _484  and  _485
REMARK  200  A    between atoms: _488  and  _490
REMARK  201  A    between atoms: _490  and  _491
REMARK  202  A    between atoms: _490  and  _493
REMARK  203  A    between atoms: _493  and  _494
REMARK  204  A    between atoms: _494  and  _495
REMARK  205  A    between atoms: _495  and  _496
REMARK  206  A    between atoms: _505  and  _507
REMARK  207  A    between atoms: _507  and  _508
REMARK  208  A    between atoms: _507  and  _510
REMARK  209  A    between atoms: _510  and  _511
REMARK  210  A    between atoms: _514  and  _516
REMARK  211  A    between atoms: _516  and  _517
REMARK  212  A    between atoms: _516  and  _519
REMARK  213  A    between atoms: _522  and  _524
REMARK  214  A    between atoms: _524  and  _525
REMARK  215  A    between atoms: _524  and  _527
REMARK  216  A    between atoms: _527  and  _528
REMARK  217  A    between atoms: _534  and  _536
REMARK  218  A    between atoms: _536  and  _537
REMARK  219  A    between atoms: _536  and  _539
REMARK  220  A    between atoms: _539  and  _540
REMARK  221  A    between atoms: _543  and  _545
REMARK  222  A    between atoms: _545  and  _546
REMARK  223  A    between atoms: _549  and  _551
REMARK  224  A    between atoms: _551  and  _552
REMARK  225  A    between atoms: _555  and  _557
REMARK  226  A    between atoms: _557  and  _558
REMARK  227  A    between atoms: _557  and  _560
REMARK  228  A    between atoms: _560  and  _561
REMARK  229  A    between atoms: _566  and  _567
REMARK  230  A    between atoms: _569  and  _571
REMARK  231  A    between atoms: _571  and  _572
REMARK  232  A    between atoms: _571  and  _574
REMARK  233  A    between atoms: _574  and  _575
REMARK                            x       y       z     vdW  Elec       q    Type
REMARK                         _______ _______ _______ _____ _____    ______ ____
ROOT
ATOM      1  CA  ILE A   1     -13.086  -5.575  -8.756  0.00  0.00    +0.000 C 
ENDROOT
BRANCH   1   2
ATOM      2  N   ILE A   1     -13.982  -4.489  -8.400  0.00  0.00    +0.000 NA
ATOM      3  H   ILE A   1     -14.972  -4.690  -8.155  0.00  0.00    +0.000 HD
ENDBRANCH   1   2
BRANCH   1   4
ATOM      4  CB  ILE A   1     -13.800  -6.917  -8.717  0.00  0.00    +0.000 C 
ATOM      5  CG2 ILE A   1     -13.003  -7.998  -9.471  0.00  0.00    +0.000 C 
BRANCH   4   6
ATOM      6  CG1 ILE A   1     -14.037  -7.312  -7.245  0.00  0.00    +0.000 C 
ATOM      7  CD1 ILE A   1     -14.887  -8.571  -7.081  0.00  0.00    +0.000 C 
ENDBRANCH   4   6
ENDBRANCH   1   4
BRANCH   1   8
ATOM      8  C   ILE A   1     -12.429  -5.338 -10.119  0.00  0.00    +0.000 C 
ATOM      9  O   ILE A   1     -11.302  -5.773 -10.362  0.00  0.00    +0.000 OA
ENDBRANCH   1   8
TORSDOF 4
REMARK  Name = ../refined-set-2016/4ea2/4ea2_pocket.pdb
REMARK  233 active torsions:
REMARK  status: ('A' for Active; 'I' for Inactive)
REMARK    1  A    between atoms: _1  and  _3
REMARK    2  A    between atoms: _3  and  _4
REMARK    3  A    between atoms: _3  and  _6
REMARK    4  A    between atoms: _6  and  _7
REMARK    5  A    between atoms: _10  and  _12
REMARK    6  A    between atoms: _12  and  _13
REMARK    7  A    between atoms: _12  and  _15
REMARK    8  A    between atoms: _15  and  _16
REMARK    9  A    between atoms: _16  and  _17
REMARK   10  A    between atoms: _19  and  _21
REMARK   11  A    between atoms: _21  and  _22
REMARK   12  A    between atoms: _21  and  _24
REMARK   13  A    between atoms: _24  and  _25
REMARK   14  A    between atoms: _30  and  _32
REMARK   15  A    between atoms: _32  and  _33
REMARK   16  A    between atoms: _32  and  _35
REMARK   17  A    between atoms: _35  and  _36
REMARK   18  A    between atoms: _38  and  _40
REMARK   19  A    between atoms: _40  and  _41
REMARK   20  A    between atoms: _40  and  _43
REMARK   21  A    between atoms: _43  and  _44
REMARK   22  A    between atoms: _46  and  _48
REMARK   23  A    between atoms: _48  and  _49
REMARK   24  A    between atoms: _48  and  _51
REMARK   25  A    between atoms: _51  and  _52
REMARK   26  A    between atoms: _58  and  _60
REMARK   27  A    between atoms: _60  and  _61
REMARK   28  A    between atoms: _64  and  _66
REMARK   29  A    between atoms: _66  and  _67
REMARK   30  A    between atoms: _66  and  _69
REMARK   31  A    between atoms: _69  and  _70
REMARK   32  A    between atoms: _76  and  _78
REMARK   33  A    between atoms: _78  and  _79
REMARK   34  A    between atoms: _78  and  _81
REMARK   35  A    between atoms: _84  and  _86
REMARK   36  A    between atoms: _86  and  _87
REMARK   37  A    between atoms: _86  and  _89
REMARK   38  A    between atoms: _89  and  _90
REMARK   39  A    between atoms: _93  and  _95
REMARK   40  A    between atoms: _95  and  _96
REMARK   41  A    between atoms: _95  and  _98
REMARK   42  A    between atoms: _98  and  _99
REMARK   43  A    between atoms: _104  and  _105
REMARK   44  A    between atoms: _107  and  _109
REMARK   45  A    between atoms: _109  and  _110
REMARK   46  A    between atoms: _113  and  _115
REMARK   47  A    between atoms: _115  and  _116
REMARK   48  A    between atoms: _115  and  _118
REMARK   49  A    between atoms: _121  and  _123
REMARK   50  A    between atoms: _123  and  _124
REMARK   51  A    between atoms: _123  and  _126
REMARK   52  A    between atoms: _128  and  _130
REMARK   53  A    between atoms: _130  and  _131
REMARK   54  A    between atoms: _130  and  _133
REMARK   55  A    between atoms: _133  and  _134
REMARK   56  A    between atoms: _134  and  _135
REMARK   57  A    between atoms: _135  and  _136
REMARK   58  A    between atoms: _145  and  _147
REMARK   59  A    between atoms: _147  and  _148
REMARK   60  A    between atoms: _147  and  _150
REMARK   61  A    between atoms: _150  and  _151
REMARK   62  A    between atoms: _151  and  _152
REMARK   63  A    between atoms: _152  and  _153
REMARK   64  A    between atoms: _153  and  _154
REMARK   65  A    between atoms: _158  and  _160
REMARK   66  A    between atoms: _160  and  _161
REMARK   67  A    between atoms: _160  and  _163
REMARK   68  A    between atoms: _163  and  _164
REMARK   69  A    between atoms: _167  and  _169
REMARK   70  A    between atoms: _169  and  _170
REMARK   71  A    between atoms: _169  and  _172
REMARK   72  A    between atoms: _172  and  _173
REMARK   73  A    between atoms: _176  and  _178
REMARK   74  A    between atoms: _178  and  _179
REMARK   75  A    between atoms: _178  and  _181
REMARK   76  A    between atoms: _181  and  _182
REMARK   77  A    between atoms: _185  and  _187
REMARK   78  A    between atoms: _187  and  _188
REMARK   79  A    between atoms: _187  and  _190
REMARK   80  A    between atoms: _190  and  _191
REMARK   81  A    between atoms: _197  and  _199
REMARK   82  A    between atoms: _199  and  _200
REMARK   83  A    between atoms: _199  and  _202
REMARK   84  A    between atoms: _202  and  _203
REMARK   85  A    between atoms: _206  and  _208
REMARK   86  A    between atoms: _208  and  _209
REMARK   87  A    between atoms: _208  and  _211
REMARK   88  A    between atoms: _211  and  _212
REMARK   89  A    between atoms: _215  and  _217
REMARK   90  A    between atoms: _217  and  _218
REMARK   91  A    between atoms: _217  and  _220
REMARK   92  A    between atoms: _223  and  _225
REMARK   93  A    between atoms: _225  and  _226
REMARK   94  A    between atoms: _225  and  _228
REMARK   95  A    between atoms: _228  and  _229
REMARK   96  A    between atoms: _234  and  _235
REMARK   97  A    between atoms: _237  and  _239
REMARK   98  A    between atoms: _239  and  _240
REMARK   99  A    between atoms: _239  and  _242
REMARK  100  A    between atoms: _244  and  _246
REMARK  101  A    between atoms: _246  and  _247
REMARK  102  A    between atoms: _246  and  _249
REMARK  103  A    between atoms: _249  and  _250
REMARK  104  A    between atoms: _255  and  _256
REMARK  105  A    between atoms: _258  and  _260
REMARK  106  A    between atoms: _260  and  _261
REMARK  107  A    between atoms: _263  and  _265
REMARK  108  A    between atoms: _265  and  _266
REMARK  109  A    between atoms: _265  and  _268
REMARK  110  A    between atoms: _271  and  _273
REMARK  111  A    between atoms: _273  and  _274
REMARK  112  A    between atoms: _277  and  _279
REMARK  113  A    between atoms: _279  and  _280
REMARK  114  A    between atoms: _282  and  _284
REMARK  115  A    between atoms: _284  and  _285
REMARK  116  A    between atoms: _284  and  _287
REMARK  117  A    between atoms: _287  and  _288
REMARK  118  A    between atoms: _291  and  _293
REMARK  119  A    between atoms: _293  and  _294
REMARK  120  A    between atoms: _293  and  _296
REMARK  121  A    between atoms: _299  and  _301
REMARK  122  A    between atoms: _301  and  _302
REMARK  123  A    between atoms: _304  and  _306
REMARK  124  A    between atoms: _306  and  _307
REMARK  125  A    between atoms: _306  and  _309
REMARK  126  A    between atoms: _309  and  _310
REMARK  127  A    between atoms: _310  and  _311
REMARK  128  A    between atoms: _314  and  _316
REMARK  129  A    between atoms: _316  and  _317
REMARK  130  A    between atoms: _316  and  _319
REMARK  131  A    between atoms: _322  and  _324
REMARK  132  A    between atoms: _324  and  _325
REMARK  133  A    between atoms: _324  and  _327
REMARK  134  A    between atoms: _327  and  _328
REMARK  135  A    between atoms: _331  and  _333
REMARK  136  A    between atoms: _333  and  _334
REMARK  137  A    between atoms: _333  and  _336
REMARK  138  A    between atoms: _336  and  _337
REMARK  139  A    between atoms: _340  and  _342
REMARK  140  A    between atoms: _342  and  _343
REMARK  141  A    between atoms: _342  and  _345
REMARK  142  A    between atoms: _345  and  _346
REMARK  143  A    between atoms: _349  and  _351
REMARK  144  A    between atoms: _351  and  _352
REMARK  145  A    between atoms: _351  and  _354
REMARK  146  A    between atoms: _357  and  _359
REMARK  147  A    between atoms: _359  and  _360
REMARK  148  A    between atoms: _363  and  _365
REMARK  149  A    between atoms: _365  and  _366
REMARK  150  A    between atoms: _365  and  _368
REMARK  151  A    between atoms: _368  and  _369
REMARK  152  A    between atoms: _369  and  _370
REMARK  153  A    between atoms: _370  and  _371
REMARK  154  A    between atoms: _380  and  _382
REMARK  155  A    between atoms: _382  and  _383
REMARK  156  A    between atoms: _382  and  _385
REMARK  157  A    between atoms: _385  and  _386
REMARK  158  A    between atoms: _386  and  _387
REMARK  159  A    between atoms: _387  and  _388
REMARK  160  A    between atoms: _397  and  _399
REMARK  161  A    between atoms: _399  and  _400
REMARK  162  A    between atoms: _399  and  _402
REMARK  163  A    between atoms: _402  and  _403
REMARK  164  A    between atoms: _406  and  _408
REMARK  165  A    between atoms: _408  and  _409
REMARK  166  A    between atoms: _411  and  _413
REMARK  167  A    between atoms: _413  and  _414
REMARK  168  A    between atoms: _413  and  _416
REMARK  169  A    between atoms: _416  and  _417
REMARK  170  A    between atoms: _417  and  _418
REMARK  171  A    between atoms: _421  and  _423
REMARK  172  A    between atoms: _423  and  _424
REMARK  173  A    between atoms: _423  and  _426
REMARK  174  A    between atoms: _426  and  _427
REMARK  175  A    between atoms: _429  and  _431
REMARK  176  A    between atoms: _431  and  _432
REMARK  177  A    between atoms: _431  and  _434
REMARK  178  A    between atoms: _434  and  _435
REMARK  179  A    between atoms: _438  and  _440
REMARK  180  A    between atoms: _440  and  _441
REMARK  181  A    between atoms: _440  and  _443
REMARK  182  A    between atoms: _443  and  _444
REMARK  183  A    between atoms: _444  and  _445
REMARK  184  A    between atoms: _450  and  _452
REMARK  185  A    between atoms: _452  and  _453
REMARK  186  A    between atoms: _452  and  _455
REMARK  187  A    between atoms: _455  and  _456
REMARK  188  A    between atoms: _459  and  _461
REMARK  189  A    between atoms: _461  and  _462
REMARK  190  A    between atoms: _461  and  _464
REMARK  191  A    between atoms: _464  and  _465
REMARK  192  A    between atoms: _468  and  _470
REMARK  193  A    between atoms: _470  and  _471
REMARK  194  A    between atoms: _470  and  _473
REMARK  195  A    between atoms: _473  and  _474
REMARK  196  A    between atoms: _479  and  _481
REMARK  197  A    between atoms: _481  and  _482
REMARK  198  A    between atoms: _481  and  _484
REMARK  199  A    between atoms: _484  and  _485
REMARK  200  A    between atoms: _488  and  _490
REMARK  201  A    between atoms: _490  and  _491
REMARK  202  A    between atoms: _490  and  _493
REMARK  203  A    between atoms: _493  and  _494
REMARK  204  A    between atoms: _494  and  _495
REMARK  205  A    between atoms: _495  and  _496
REMARK  206  A    between atoms: _505  and  _507
REMARK  207  A    between atoms: _507  and  _508
REMARK  208  A    between atoms: _507  and  _510
REMARK  209  A    between atoms: _510  and  _511
REMARK  210  A    between atoms: _514  and  _516
REMARK  211  A    between atoms: _516  and  _517
REMARK  212  A    between atoms: _516  and  _519
REMARK  213  A    between atoms: _522  and  _524
REMARK  214  A    between atoms: _524  and  _525
REMARK  215  A    between atoms: _524  and  _527
REMARK  216  A    between atoms: _527  and  _528
REMARK  217  A    between atoms: _534  and  _536
REMARK  218  A    between atoms: _536  and  _537
REMARK  219  A    between atoms: _536  and  _539
REMARK  220  A    between atoms: _539  and  _540
REMARK  221  A    between atoms: _543  and  _545
REMARK  222  A    between atoms: _545  and  _546
REMARK  223  A    between atoms: _549  and  _551
REMARK  224  A    between atoms: _551  and  _552
REMARK  225  A    between atoms: _555  and  _557
REMARK  226  A    between atoms: _557  and  _558
REMARK  227  A    between atoms: _557  and  _560
REMARK  228  A    between atoms: _560  and  _561
REMARK  229  A    between atoms: _566  and  _567
REMARK  230  A    between atoms: _569  and  _571
REMARK  231  A    between atoms: _571  and  _572
REMARK  232  A    between atoms: _571  and  _574
REMARK  233  A    between atoms: _574  and  _575
REMARK                            x       y       z     vdW  Elec       q    Type
REMARK                         _______ _______ _______ _____ _____    ______ ____
ROOT
ATOM      1 MG   UNL     1     -19.789 -23.337 -12.360  0.00  0.00    +0.000 Mg
ATOM      2  O   UNL     1     -18.534 -24.132 -10.922  0.00  0.00    +0.000 OA
ATOM      3  O   UNL     1     -20.263 -22.286 -11.327  0.00  0.00    +0.000 OA
ENDROOT
TORSDOF 0
REMARK  Name = ../refined-set-2016/4ea2/4ea2_pocket.pdb
REMARK  233 active torsions:
REMARK  status: ('A' for Active; 'I' for Inactive)
REMARK    1  A    between atoms: _1  and  _3
REMARK    2  A    between atoms: _3  and  _4
REMARK    3  A    between atoms: _3  and  _6
REMARK    4  A    between atoms: _6  and  _7
REMARK    5  A    between atoms: _10  and  _12
REMARK    6  A    between atoms: _12  and  _13
REMARK    7  A    between atoms: _12  and  _15
REMARK    8  A    between atoms: _15  and  _16
REMARK    9  A    between atoms: _16  and  _17
REMARK   10  A    between atoms: _19  and  _21
REMARK   11  A    between atoms: _21  and  _22
REMARK   12  A    between atoms: _21  and  _24
REMARK   13  A    between atoms: _24  and  _25
REMARK   14  A    between atoms: _30  and  _32
REMARK   15  A    between atoms: _32  and  _33
REMARK   16  A    between atoms: _32  and  _35
REMARK   17  A    between atoms: _35  and  _36
REMARK   18  A    between atoms: _38  and  _40
REMARK   19  A    between atoms: _40  and  _41
REMARK   20  A    between atoms: _40  and  _43
REMARK   21  A    between atoms: _43  and  _44
REMARK   22  A    between atoms: _46  and  _48
REMARK   23  A    between atoms: _48  and  _49
REMARK   24  A    between atoms: _48  and  _51
REMARK   25  A    between atoms: _51  and  _52
REMARK   26  A    between atoms: _58  and  _60
REMARK   27  A    between atoms: _60  and  _61
REMARK   28  A    between atoms: _64  and  _66
REMARK   29  A    between atoms: _66  and  _67
REMARK   30  A    between atoms: _66  and  _69
REMARK   31  A    between atoms: _69  and  _70
REMARK   32  A    between atoms: _76  and  _78
REMARK   33  A    between atoms: _78  and  _79
REMARK   34  A    between atoms: _78  and  _81
REMARK   35  A    between atoms: _84  and  _86
REMARK   36  A    between atoms: _86  and  _87
REMARK   37  A    between atoms: _86  and  _89
REMARK   38  A    between atoms: _89  and  _90
REMARK   39  A    between atoms: _93  and  _95
REMARK   40  A    between atoms: _95  and  _96
REMARK   41  A    between atoms: _95  and  _98
REMARK   42  A    between atoms: _98  and  _99
REMARK   43  A    between atoms: _104  and  _105
REMARK   44  A    between atoms: _107  and  _109
REMARK   45  A    between atoms: _109  and  _110
REMARK   46  A    between atoms: _113  and  _115
REMARK   47  A    between atoms: _115  and  _116
REMARK   48  A    between atoms: _115  and  _118
REMARK   49  A    between atoms: _121  and  _123
REMARK   50  A    between atoms: _123  and  _124
REMARK   51  A    between atoms: _123  and  _126
REMARK   52  A    between atoms: _128  and  _130
REMARK   53  A    between atoms: _130  and  _131
REMARK   54  A    between atoms: _130  and  _133
REMARK   55  A    between atoms: _133  and  _134
REMARK   56  A    between atoms: _134  and  _135
REMARK   57  A    between atoms: _135  and  _136
REMARK   58  A    between atoms: _145  and  _147
REMARK   59  A    between atoms: _147  and  _148
REMARK   60  A    between atoms: _147  and  _150
REMARK   61  A    between atoms: _150  and  _151
REMARK   62  A    between atoms: _151  and  _152
REMARK   63  A    between atoms: _152  and  _153
REMARK   64  A    between atoms: _153  and  _154
REMARK   65  A    between atoms: _158  and  _160
REMARK   66  A    between atoms: _160  and  _161
REMARK   67  A    between atoms: _160  and  _163
REMARK   68  A    between atoms: _163  and  _164
REMARK   69  A    between atoms: _167  and  _169
REMARK   70  A    between atoms: _169  and  _170
REMARK   71  A    between atoms: _169  and  _172
REMARK   72  A    between atoms: _172  and  _173
REMARK   73  A    between atoms: _176  and  _178
REMARK   74  A    between atoms: _178  and  _179
REMARK   75  A    between atoms: _178  and  _181
REMARK   76  A    between atoms: _181  and  _182
REMARK   77  A    between atoms: _185  and  _187
REMARK   78  A    between atoms: _187  and  _188
REMARK   79  A    between atoms: _187  and  _190
REMARK   80  A    between atoms: _190  and  _191
REMARK   81  A    between atoms: _197  and  _199
REMARK   82  A    between atoms: _199  and  _200
REMARK   83  A    between atoms: _199  and  _202
REMARK   84  A    between atoms: _202  and  _203
REMARK   85  A    between atoms: _206  and  _208
REMARK   86  A    between atoms: _208  and  _209
REMARK   87  A    between atoms: _208  and  _211
REMARK   88  A    between atoms: _211  and  _212
REMARK   89  A    between atoms: _215  and  _217
REMARK   90  A    between atoms: _217  and  _218
REMARK   91  A    between atoms: _217  and  _220
REMARK   92  A    between atoms: _223  and  _225
REMARK   93  A    between atoms: _225  and  _226
REMARK   94  A    between atoms: _225  and  _228
REMARK   95  A    between atoms: _228  and  _229
REMARK   96  A    between atoms: _234  and  _235
REMARK   97  A    between atoms: _237  and  _239
REMARK   98  A    between atoms: _239  and  _240
REMARK   99  A    between atoms: _239  and  _242
REMARK  100  A    between atoms: _244  and  _246
REMARK  101  A    between atoms: _246  and  _247
REMARK  102  A    between atoms: _246  and  _249
REMARK  103  A    between atoms: _249  and  _250
REMARK  104  A    between atoms: _255  and  _256
REMARK  105  A    between atoms: _258  and  _260
REMARK  106  A    between atoms: _260  and  _261
REMARK  107  A    between atoms: _263  and  _265
REMARK  108  A    between atoms: _265  and  _266
REMARK  109  A    between atoms: _265  and  _268
REMARK  110  A    between atoms: _271  and  _273
REMARK  111  A    between atoms: _273  and  _274
REMARK  112  A    between atoms: _277  and  _279
REMARK  113  A    between atoms: _279  and  _280
REMARK  114  A    between atoms: _282  and  _284
REMARK  115  A    between atoms: _284  and  _285
REMARK  116  A    between atoms: _284  and  _287
REMARK  117  A    between atoms: _287  and  _288
REMARK  118  A    between atoms: _291  and  _293
REMARK  119  A    between atoms: _293  and  _294
REMARK  120  A    between atoms: _293  and  _296
REMARK  121  A    between atoms: _299  and  _301
REMARK  122  A    between atoms: _301  and  _302
REMARK  123  A    between atoms: _304  and  _306
REMARK  124  A    between atoms: _306  and  _307
REMARK  125  A    between atoms: _306  and  _309
REMARK  126  A    between atoms: _309  and  _310
REMARK  127  A    between atoms: _310  and  _311
REMARK  128  A    between atoms: _314  and  _316
REMARK  129  A    between atoms: _316  and  _317
REMARK  130  A    between atoms: _316  and  _319
REMARK  131  A    between atoms: _322  and  _324
REMARK  132  A    between atoms: _324  and  _325
REMARK  133  A    between atoms: _324  and  _327
REMARK  134  A    between atoms: _327  and  _328
REMARK  135  A    between atoms: _331  and  _333
REMARK  136  A    between atoms: _333  and  _334
REMARK  137  A    between atoms: _333  and  _336
REMARK  138  A    between atoms: _336  and  _337
REMARK  139  A    between atoms: _340  and  _342
REMARK  140  A    between atoms: _342  and  _343
REMARK  141  A    between atoms: _342  and  _345
REMARK  142  A    between atoms: _345  and  _346
REMARK  143  A    between atoms: _349  and  _351
REMARK  144  A    between atoms: _351  and  _352
REMARK  145  A    between atoms: _351  and  _354
REMARK  146  A    between atoms: _357  and  _359
REMARK  147  A    between atoms: _359  and  _360
REMARK  148  A    between atoms: _363  and  _365
REMARK  149  A    between atoms: _365  and  _366
REMARK  150  A    between atoms: _365  and  _368
REMARK  151  A    between atoms: _368  and  _369
REMARK  152  A    between atoms: _369  and  _370
REMARK  153  A    between atoms: _370  and  _371
REMARK  154  A    between atoms: _380  and  _382
REMARK  155  A    between atoms: _382  and  _383
REMARK  156  A    between atoms: _382  and  _385
REMARK  157  A    between atoms: _385  and  _386
REMARK  158  A    between atoms: _386  and  _387
REMARK  159  A    between atoms: _387  and  _388
REMARK  160  A    between atoms: _397  and  _399
REMARK  161  A    between atoms: _399  and  _400
REMARK  162  A    between atoms: _399  and  _402
REMARK  163  A    between atoms: _402  and  _403
REMARK  164  A    between atoms: _406  and  _408
REMARK  165  A    between atoms: _408  and  _409
REMARK  166  A    between atoms: _411  and  _413
REMARK  167  A    between atoms: _413  and  _414
REMARK  168  A    between atoms: _413  and  _416
REMARK  169  A    between atoms: _416  and  _417
REMARK  170  A    between atoms: _417  and  _418
REMARK  171  A    between atoms: _421  and  _423
REMARK  172  A    between atoms: _423  and  _424
REMARK  173  A    between atoms: _423  and  _426
REMARK  174  A    between atoms: _426  and  _427
REMARK  175  A    between atoms: _429  and  _431
REMARK  176  A    between atoms: _431  and  _432
REMARK  177  A    between atoms: _431  and  _434
REMARK  178  A    between atoms: _434  and  _435
REMARK  179  A    between atoms: _438  and  _440
REMARK  180  A    between atoms: _440  and  _441
REMARK  181  A    between atoms: _440  and  _443
REMARK  182  A    between atoms: _443  and  _444
REMARK  183  A    between atoms: _444  and  _445
REMARK  184  A    between atoms: _450  and  _452
REMARK  185  A    between atoms: _452  and  _453
REMARK  186  A    between atoms: _452  and  _455
REMARK  187  A    between atoms: _455  and  _456
REMARK  188  A    between atoms: _459  and  _461
REMARK  189  A    between atoms: _461  and  _462
REMARK  190  A    between atoms: _461  and  _464
REMARK  191  A    between atoms: _464  and  _465
REMARK  192  A    between atoms: _468  and  _470
REMARK  193  A    between atoms: _470  and  _471
REMARK  194  A    between atoms: _470  and  _473
REMARK  195  A    between atoms: _473  and  _474
REMARK  196  A    between atoms: _479  and  _481
REMARK  197  A    between atoms: _481  and  _482
REMARK  198  A    between atoms: _481  and  _484
REMARK  199  A    between atoms: _484  and  _485
REMARK  200  A    between atoms: _488  and  _490
REMARK  201  A    between atoms: _490  and  _491
REMARK  202  A    between atoms: _490  and  _493
REMARK  203  A    between atoms: _493  and  _494
REMARK  204  A    between atoms: _494  and  _495
REMARK  205  A    between atoms: _495  and  _496
REMARK  206  A    between atoms: _505  and  _507
REMARK  207  A    between atoms: _507  and  _508
REMARK  208  A    between atoms: _507  and  _510
REMARK  209  A    between atoms: _510  and  _511
REMARK  210  A    between atoms: _514  and  _516
REMARK  211  A    between atoms: _516  and  _517
REMARK  212  A    between atoms: _516  and  _519
REMARK  213  A    between atoms: _522  and  _524
REMARK  214  A    between atoms: _524  and  _525
REMARK  215  A    between atoms: _524  and  _527
REMARK  216  A    between atoms: _527  and  _528
REMARK  217  A    between atoms: _534  and  _536
REMARK  218  A    between atoms: _536  and  _537
REMARK  219  A    between atoms: _536  and  _539
REMARK  220  A    between atoms: _539  and  _540
REMARK  221  A    between atoms: _543  and  _545
REMARK  222  A    between atoms: _545  and  _546
REMARK  223  A    between atoms: _549  and  _551
REMARK  224  A    between atoms: _551  and  _552
REMARK  225  A    between atoms: _555  and  _557
REMARK  226  A    between atoms: _557  and  _558
REMARK  227  A    between atoms: _557  and  _560
REMARK  228  A    between atoms: _560  and  _561
REMARK  229  A    between atoms: _566  and  _567
REMARK  230  A    between atoms: _569  and  _571
REMARK  231  A    between atoms: _571  and  _572
REMARK  232  A    between atoms: _571  and  _574
REMARK  233  A    between atoms: _574  and  _575
REMARK                            x       y       z     vdW  Elec       q    Type
REMARK                         _______ _______ _______ _____ _____    ______ ____
ROOT
ATOM      1  O   HOH     1     -17.556 -14.524  -5.675  0.00  0.00    +0.000 OA
ENDROOT
TORSDOF 0
REMARK  Name = ../refined-set-2016/4ea2/4ea2_pocket.pdb
REMARK  233 active torsions:
REMARK  status: ('A' for Active; 'I' for Inactive)
REMARK    1  A    between atoms: _1  and  _3
REMARK    2  A    between atoms: _3  and  _4
REMARK    3  A    between atoms: _3  and  _6
REMARK    4  A    between atoms: _6  and  _7
REMARK    5  A    between atoms: _10  and  _12
REMARK    6  A    between atoms: _12  and  _13
REMARK    7  A    between atoms: _12  and  _15
REMARK    8  A    between atoms: _15  and  _16
REMARK    9  A    between atoms: _16  and  _17
REMARK   10  A    between atoms: _19  and  _21
REMARK   11  A    between atoms: _21  and  _22
REMARK   12  A    between atoms: _21  and  _24
REMARK   13  A    between atoms: _24  and  _25
REMARK   14  A    between atoms: _30  and  _32
REMARK   15  A    between atoms: _32  and  _33
REMARK   16  A    between atoms: _32  and  _35
REMARK   17  A    between atoms: _35  and  _36
REMARK   18  A    between atoms: _38  and  _40
REMARK   19  A    between atoms: _40  and  _41
REMARK   20  A    between atoms: _40  and  _43
REMARK   21  A    between atoms: _43  and  _44
REMARK   22  A    between atoms: _46  and  _48
REMARK   23  A    between atoms: _48  and  _49
REMARK   24  A    between atoms: _48  and  _51
REMARK   25  A    between atoms: _51  and  _52
REMARK   26  A    between atoms: _58  and  _60
REMARK   27  A    between atoms: _60  and  _61
REMARK   28  A    between atoms: _64  and  _66
REMARK   29  A    between atoms: _66  and  _67
REMARK   30  A    between atoms: _66  and  _69
REMARK   31  A    between atoms: _69  and  _70
REMARK   32  A    between atoms: _76  and  _78
REMARK   33  A    between atoms: _78  and  _79
REMARK   34  A    between atoms: _78  and  _81
REMARK   35  A    between atoms: _84  and  _86
REMARK   36  A    between atoms: _86  and  _87
REMARK   37  A    between atoms: _86  and  _89
REMARK   38  A    between atoms: _89  and  _90
REMARK   39  A    between atoms: _93  and  _95
REMARK   40  A    between atoms: _95  and  _96
REMARK   41  A    between atoms: _95  and  _98
REMARK   42  A    between atoms: _98  and  _99
REMARK   43  A    between atoms: _104  and  _105
REMARK   44  A    between atoms: _107  and  _109
REMARK   45  A    between atoms: _109  and  _110
REMARK   46  A    between atoms: _113  and  _115
REMARK   47  A    between atoms: _115  and  _116
REMARK   48  A    between atoms: _115  and  _118
REMARK   49  A    between atoms: _121  and  _123
REMARK   50  A    between atoms: _123  and  _124
REMARK   51  A    between atoms: _123  and  _126
REMARK   52  A    between atoms: _128  and  _130
REMARK   53  A    between atoms: _130  and  _131
REMARK   54  A    between atoms: _130  and  _133
REMARK   55  A    between atoms: _133  and  _134
REMARK   56  A    between atoms: _134  and  _135
REMARK   57  A    between atoms: _135  and  _136
REMARK   58  A    between atoms: _145  and  _147
REMARK   59  A    between atoms: _147  and  _148
REMARK   60  A    between atoms: _147  and  _150
REMARK   61  A    between atoms: _150  and  _151
REMARK   62  A    between atoms: _151  and  _152
REMARK   63  A    between atoms: _152  and  _153
REMARK   64  A    between atoms: _153  and  _154
REMARK   65  A    between atoms: _158  and  _160
REMARK   66  A    between atoms: _160  and  _161
REMARK   67  A    between atoms: _160  and  _163
REMARK   68  A    between atoms: _163  and  _164
REMARK   69  A    between atoms: _167  and  _169
REMARK   70  A    between atoms: _169  and  _170
REMARK   71  A    between atoms: _169  and  _172
REMARK   72  A    between atoms: _172  and  _173
REMARK   73  A    between atoms: _176  and  _178
REMARK   74  A    between atoms: _178  and  _179
REMARK   75  A    between atoms: _178  and  _181
REMARK   76  A    between atoms: _181  and  _182
REMARK   77  A    between atoms: _185  and  _187
REMARK   78  A    between atoms: _187  and  _188
REMARK   79  A    between atoms: _187  and  _190
REMARK   80  A    between atoms: _190  and  _191
REMARK   81  A    between atoms: _197  and  _199
REMARK   82  A    between atoms: _199  and  _200
REMARK   83  A    between atoms: _199  and  _202
REMARK   84  A    between atoms: _202  and  _203
REMARK   85  A    between atoms: _206  and  _208
REMARK   86  A    between atoms: _208  and  _209
REMARK   87  A    between atoms: _208  and  _211
REMARK   88  A    between atoms: _211  and  _212
REMARK   89  A    between atoms: _215  and  _217
REMARK   90  A    between atoms: _217  and  _218
REMARK   91  A    between atoms: _217  and  _220
REMARK   92  A    between atoms: _223  and  _225
REMARK   93  A    between atoms: _225  and  _226
REMARK   94  A    between atoms: _225  and  _228
REMARK   95  A    between atoms: _228  and  _229
REMARK   96  A    between atoms: _234  and  _235
REMARK   97  A    between atoms: _237  and  _239
REMARK   98  A    between atoms: _239  and  _240
REMARK   99  A    between atoms: _239  and  _242
REMARK  100  A    between atoms: _244  and  _246
REMARK  101  A    between atoms: _246  and  _247
REMARK  102  A    between atoms: _246  and  _249
REMARK  103  A    between atoms: _249  and  _250
REMARK  104  A    between atoms: _255  and  _256
REMARK  105  A    between atoms: _258  and  _260
REMARK  106  A    between atoms: _260  and  _261
REMARK  107  A    between atoms: _263  and  _265
REMARK  108  A    between atoms: _265  and  _266
REMARK  109  A    between atoms: _265  and  _268
REMARK  110  A    between atoms: _271  and  _273
REMARK  111  A    between atoms: _273  and  _274
REMARK  112  A    between atoms: _277  and  _279
REMARK  113  A    between atoms: _279  and  _280
REMARK  114  A    between atoms: _282  and  _284
REMARK  115  A    between atoms: _284  and  _285
REMARK  116  A    between atoms: _284  and  _287
REMARK  117  A    between atoms: _287  and  _288
REMARK  118  A    between atoms: _291  and  _293
REMARK  119  A    between atoms: _293  and  _294
REMARK  120  A    between atoms: _293  and  _296
REMARK  121  A    between atoms: _299  and  _301
REMARK  122  A    between atoms: _301  and  _302
REMARK  123  A    between atoms: _304  and  _306
REMARK  124  A    between atoms: _306  and  _307
REMARK  125  A    between atoms: _306  and  _309
REMARK  126  A    between atoms: _309  and  _310
REMARK  127  A    between atoms: _310  and  _311
REMARK  128  A    between atoms: _314  and  _316
REMARK  129  A    between atoms: _316  and  _317
REMARK  130  A    between atoms: _316  and  _319
REMARK  131  A    between atoms: _322  and  _324
REMARK  132  A    between atoms: _324  and  _325
REMARK  133  A    between atoms: _324  and  _327
REMARK  134  A    between atoms: _327  and  _328
REMARK  135  A    between atoms: _331  and  _333
REMARK  136  A    between atoms: _333  and  _334
REMARK  137  A    between atoms: _333  and  _336
REMARK  138  A    between atoms: _336  and  _337
REMARK  139  A    between atoms: _340  and  _342
REMARK  140  A    between atoms: _342  and  _343
REMARK  141  A    between atoms: _342  and  _345
REMARK  142  A    between atoms: _345  and  _346
REMARK  143  A    between atoms: _349  and  _351
REMARK  144  A    between atoms: _351  and  _352
REMARK  145  A    between atoms: _351  and  _354
REMARK  146  A    between atoms: _357  and  _359
REMARK  147  A    between atoms: _359  and  _360
REMARK  148  A    between atoms: _363  and  _365
REMARK  149  A    between atoms: _365  and  _366
REMARK  150  A    between atoms: _365  and  _368
REMARK  151  A    between atoms: _368  and  _369
REMARK  152  A    between atoms: _369  and  _370
REMARK  153  A    between atoms: _370  and  _371
REMARK  154  A    between atoms: _380  and  _382
REMARK  155  A    between atoms: _382  and  _383
REMARK  156  A    between atoms: _382  and  _385
REMARK  157  A    between atoms: _385  and  _386
REMARK  158  A    between atoms: _386  and  _387
REMARK  159  A    between atoms: _387  and  _388
REMARK  160  A    between atoms: _397  and  _399
REMARK  161  A    between atoms: _399  and  _400
REMARK  162  A    between atoms: _399  and  _402
REMARK  163  A    between atoms: _402  and  _403
REMARK  164  A    between atoms: _406  and  _408
REMARK  165  A    between atoms: _408  and  _409
REMARK  166  A    between atoms: _411  and  _413
REMARK  167  A    between atoms: _413  and  _414
REMARK  168  A    between atoms: _413  and  _416
REMARK  169  A    between atoms: _416  and  _417
REMARK  170  A    between atoms: _417  and  _418
REMARK  171  A    between atoms: _421  and  _423
REMARK  172  A    between atoms: _423  and  _424
REMARK  173  A    between atoms: _423  and  _426
REMARK  174  A    between atoms: _426  and  _427
REMARK  175  A    between atoms: _429  and  _431
REMARK  176  A    between atoms: _431  and  _432
REMARK  177  A    between atoms: _431  and  _434
REMARK  178  A    between atoms: _434  and  _435
REMARK  179  A    between atoms: _438  and  _440
REMARK  180  A    between atoms: _440  and  _441
REMARK  181  A    between atoms: _440  and  _443
REMARK  182  A    between atoms: _443  and  _444
REMARK  183  A    between atoms: _444  and  _445
REMARK  184  A    between atoms: _450  and  _452
REMARK  185  A    between atoms: _452  and  _453
REMARK  186  A    between atoms: _452  and  _455
REMARK  187  A    between atoms: _455  and  _456
REMARK  188  A    between atoms: _459  and  _461
REMARK  189  A    between atoms: _461  and  _462
REMARK  190  A    between atoms: _461  and  _464
REMARK  191  A    between atoms: _464  and  _465
REMARK  192  A    between atoms: _468  and  _470
REMARK  193  A    between atoms: _470  and  _471
REMARK  194  A    between atoms: _470  and  _473
REMARK  195  A    between atoms: _473  and  _474
REMARK  196  A    between atoms: _479  and  _481
REMARK  197  A    between atoms: _481  and  _482
REMARK  198  A    between atoms: _481  and  _484
REMARK  199  A    between atoms: _484  and  _485
REMARK  200  A    between atoms: _488  and  _490
REMARK  201  A    between atoms: _490  and  _491
REMARK  202  A    between atoms: _490  and  _493
REMARK  203  A    between atoms: _493  and  _494
REMARK  204  A    between atoms: _494  and  _495
REMARK  205  A    between atoms: _495  and  _496
REMARK  206  A    between atoms: _505  and  _507
REMARK  207  A    between atoms: _507  and  _508
REMARK  208  A    between atoms: _507  and  _510
REMARK  209  A    between atoms: _510  and  _511
REMARK  210  A    between atoms: _514  and  _516
REMARK  211  A    between atoms: _516  and  _517
REMARK  212  A    between atoms: _516  and  _519
REMARK  213  A    between atoms: _522  and  _524
REMARK  214  A    between atoms: _524  and  _525
REMARK  215  A    between atoms: _524  and  _527
REMARK  216  A    between atoms: _527  and  _528
REMARK  217  A    between atoms: _534  and  _536
REMARK  218  A    between atoms: _536  and  _537
REMARK  219  A    between atoms: _536  and  _539
REMARK  220  A    between atoms: _539  and  _540
REMARK  221  A    between atoms: _543  and  _545
REMARK  222  A    between atoms: _545  and  _546
REMARK  223  A    between atoms: _549  and  _551
REMARK  224  A    between atoms: _551  and  _552
REMARK  225  A    between atoms: _555  and  _557
REMARK  226  A    between atoms: _557  and  _558
REMARK  227  A    between atoms: _557  and  _560
REMARK  228  A    between atoms: _560  and  _561
REMARK  229  A    between atoms: _566  and  _567
REMARK  230  A    between atoms: _569  and  _571
REMARK  231  A    between atoms: _571  and  _572
REMARK  232  A    between atoms: _571  and  _574
REMARK  233  A    between atoms: _574  and  _575
REMARK                            x       y       z     vdW  Elec       q    Type
REMARK                         _______ _______ _______ _____ _____    ______ ____
ROOT
ATOM      1  O   HOH     1     -15.528 -18.498 -12.126  0.00  0.00    +0.000 OA
ENDROOT
TORSDOF 0
REMARK  Name = ../refined-set-2016/4ea2/4ea2_pocket.pdb
REMARK  233 active torsions:
REMARK  status: ('A' for Active; 'I' for Inactive)
REMARK    1  A    between atoms: _1  and  _3
REMARK    2  A    between atoms: _3  and  _4
REMARK    3  A    between atoms: _3  and  _6
REMARK    4  A    between atoms: _6  and  _7
REMARK    5  A    between atoms: _10  and  _12
REMARK    6  A    between atoms: _12  and  _13
REMARK    7  A    between atoms: _12  and  _15
REMARK    8  A    between atoms: _15  and  _16
REMARK    9  A    between atoms: _16  and  _17
REMARK   10  A    between atoms: _19  and  _21
REMARK   11  A    between atoms: _21  and  _22
REMARK   12  A    between atoms: _21  and  _24
REMARK   13  A    between atoms: _24  and  _25
REMARK   14  A    between atoms: _30  and  _32
REMARK   15  A    between atoms: _32  and  _33
REMARK   16  A    between atoms: _32  and  _35
REMARK   17  A    between atoms: _35  and  _36
REMARK   18  A    between atoms: _38  and  _40
REMARK   19  A    between atoms: _40  and  _41
REMARK   20  A    between atoms: _40  and  _43
REMARK   21  A    between atoms: _43  and  _44
REMARK   22  A    between atoms: _46  and  _48
REMARK   23  A    between atoms: _48  and  _49
REMARK   24  A    between atoms: _48  and  _51
REMARK   25  A    between atoms: _51  and  _52
REMARK   26  A    between atoms: _58  and  _60
REMARK   27  A    between atoms: _60  and  _61
REMARK   28  A    between atoms: _64  and  _66
REMARK   29  A    between atoms: _66  and  _67
REMARK   30  A    between atoms: _66  and  _69
REMARK   31  A    between atoms: _69  and  _70
REMARK   32  A    between atoms: _76  and  _78
REMARK   33  A    between atoms: _78  and  _79
REMARK   34  A    between atoms: _78  and  _81
REMARK   35  A    between atoms: _84  and  _86
REMARK   36  A    between atoms: _86  and  _87
REMARK   37  A    between atoms: _86  and  _89
REMARK   38  A    between atoms: _89  and  _90
REMARK   39  A    between atoms: _93  and  _95
REMARK   40  A    between atoms: _95  and  _96
REMARK   41  A    between atoms: _95  and  _98
REMARK   42  A    between atoms: _98  and  _99
REMARK   43  A    between atoms: _104  and  _105
REMARK   44  A    between atoms: _107  and  _109
REMARK   45  A    between atoms: _109  and  _110
REMARK   46  A    between atoms: _113  and  _115
REMARK   47  A    between atoms: _115  and  _116
REMARK   48  A    between atoms: _115  and  _118
REMARK   49  A    between atoms: _121  and  _123
REMARK   50  A    between atoms: _123  and  _124
REMARK   51  A    between atoms: _123  and  _126
REMARK   52  A    between atoms: _128  and  _130
REMARK   53  A    between atoms: _130  and  _131
REMARK   54  A    between atoms: _130  and  _133
REMARK   55  A    between atoms: _133  and  _134
REMARK   56  A    between atoms: _134  and  _135
REMARK   57  A    between atoms: _135  and  _136
REMARK   58  A    between atoms: _145  and  _147
REMARK   59  A    between atoms: _147  and  _148
REMARK   60  A    between atoms: _147  and  _150
REMARK   61  A    between atoms: _150  and  _151
REMARK   62  A    between atoms: _151  and  _152
REMARK   63  A    between atoms: _152  and  _153
REMARK   64  A    between atoms: _153  and  _154
REMARK   65  A    between atoms: _158  and  _160
REMARK   66  A    between atoms: _160  and  _161
REMARK   67  A    between atoms: _160  and  _163
REMARK   68  A    between atoms: _163  and  _164
REMARK   69  A    between atoms: _167  and  _169
REMARK   70  A    between atoms: _169  and  _170
REMARK   71  A    between atoms: _169  and  _172
REMARK   72  A    between atoms: _172  and  _173
REMARK   73  A    between atoms: _176  and  _178
REMARK   74  A    between atoms: _178  and  _179
REMARK   75  A    between atoms: _178  and  _181
REMARK   76  A    between atoms: _181  and  _182
REMARK   77  A    between atoms: _185  and  _187
REMARK   78  A    between atoms: _187  and  _188
REMARK   79  A    between atoms: _187  and  _190
REMARK   80  A    between atoms: _190  and  _191
REMARK   81  A    between atoms: _197  and  _199
REMARK   82  A    between atoms: _199  and  _200
REMARK   83  A    between atoms: _199  and  _202
REMARK   84  A    between atoms: _202  and  _203
REMARK   85  A    between atoms: _206  and  _208
REMARK   86  A    between atoms: _208  and  _209
REMARK   87  A    between atoms: _208  and  _211
REMARK   88  A    between atoms: _211  and  _212
REMARK   89  A    between atoms: _215  and  _217
REMARK   90  A    between atoms: _217  and  _218
REMARK   91  A    between atoms: _217  and  _220
REMARK   92  A    between atoms: _223  and  _225
REMARK   93  A    between atoms: _225  and  _226
REMARK   94  A    between atoms: _225  and  _228
REMARK   95  A    between atoms: _228  and  _229
REMARK   96  A    between atoms: _234  and  _235
REMARK   97  A    between atoms: _237  and  _239
REMARK   98  A    between atoms: _239  and  _240
REMARK   99  A    between atoms: _239  and  _242
REMARK  100  A    between atoms: _244  and  _246
REMARK  101  A    between atoms: _246  and  _247
REMARK  102  A    between atoms: _246  and  _249
REMARK  103  A    between atoms: _249  and  _250
REMARK  104  A    between atoms: _255  and  _256
REMARK  105  A    between atoms: _258  and  _260
REMARK  106  A    between atoms: _260  and  _261
REMARK  107  A    between atoms: _263  and  _265
REMARK  108  A    between atoms: _265  and  _266
REMARK  109  A    between atoms: _265  and  _268
REMARK  110  A    between atoms: _271  and  _273
REMARK  111  A    between atoms: _273  and  _274
REMARK  112  A    between atoms: _277  and  _279
REMARK  113  A    between atoms: _279  and  _280
REMARK  114  A    between atoms: _282  and  _284
REMARK  115  A    between atoms: _284  and  _285
REMARK  116  A    between atoms: _284  and  _287
REMARK  117  A    between atoms: _287  and  _288
REMARK  118  A    between atoms: _291  and  _293
REMARK  119  A    between atoms: _293  and  _294
REMARK  120  A    between atoms: _293  and  _296
REMARK  121  A    between atoms: _299  and  _301
REMARK  122  A    between atoms: _301  and  _302
REMARK  123  A    between atoms: _304  and  _306
REMARK  124  A    between atoms: _306  and  _307
REMARK  125  A    between atoms: _306  and  _309
REMARK  126  A    between atoms: _309  and  _310
REMARK  127  A    between atoms: _310  and  _311
REMARK  128  A    between atoms: _314  and  _316
REMARK  129  A    between atoms: _316  and  _317
REMARK  130  A    between atoms: _316  and  _319
REMARK  131  A    between atoms: _322  and  _324
REMARK  132  A    between atoms: _324  and  _325
REMARK  133  A    between atoms: _324  and  _327
REMARK  134  A    between atoms: _327  and  _328
REMARK  135  A    between atoms: _331  and  _333
REMARK  136  A    between atoms: _333  and  _334
REMARK  137  A    between atoms: _333  and  _336
REMARK  138  A    between atoms: _336  and  _337
REMARK  139  A    between atoms: _340  and  _342
REMARK  140  A    between atoms: _342  and  _343
REMARK  141  A    between atoms: _342  and  _345
REMARK  142  A    between atoms: _345  and  _346
REMARK  143  A    between atoms: _349  and  _351
REMARK  144  A    between atoms: _351  and  _352
REMARK  145  A    between atoms: _351  and  _354
REMARK  146  A    between atoms: _357  and  _359
REMARK  147  A    between atoms: _359  and  _360
REMARK  148  A    between atoms: _363  and  _365
REMARK  149  A    between atoms: _365  and  _366
REMARK  150  A    between atoms: _365  and  _368
REMARK  151  A    between atoms: _368  and  _369
REMARK  152  A    between atoms: _369  and  _370
REMARK  153  A    between atoms: _370  and  _371
REMARK  154  A    between atoms: _380  and  _382
REMARK  155  A    between atoms: _382  and  _383
REMARK  156  A    between atoms: _382  and  _385
REMARK  157  A    between atoms: _385  and  _386
REMARK  158  A    between atoms: _386  and  _387
REMARK  159  A    between atoms: _387  and  _388
REMARK  160  A    between atoms: _397  and  _399
REMARK  161  A    between atoms: _399  and  _400
REMARK  162  A    between atoms: _399  and  _402
REMARK  163  A    between atoms: _402  and  _403
REMARK  164  A    between atoms: _406  and  _408
REMARK  165  A    between atoms: _408  and  _409
REMARK  166  A    between atoms: _411  and  _413
REMARK  167  A    between atoms: _413  and  _414
REMARK  168  A    between atoms: _413  and  _416
REMARK  169  A    between atoms: _416  and  _417
REMARK  170  A    between atoms: _417  and  _418
REMARK  171  A    between atoms: _421  and  _423
REMARK  172  A    between atoms: _423  and  _424
REMARK  173  A    between atoms: _423  and  _426
REMARK  174  A    between atoms: _426  and  _427
REMARK  175  A    between atoms: _429  and  _431
REMARK  176  A    between atoms: _431  and  _432
REMARK  177  A    between atoms: _431  and  _434
REMARK  178  A    between atoms: _434  and  _435
REMARK  179  A    between atoms: _438  and  _440
REMARK  180  A    between atoms: _440  and  _441
REMARK  181  A    between atoms: _440  and  _443
REMARK  182  A    between atoms: _443  and  _444
REMARK  183  A    between atoms: _444  and  _445
REMARK  184  A    between atoms: _450  and  _452
REMARK  185  A    between atoms: _452  and  _453
REMARK  186  A    between atoms: _452  and  _455
REMARK  187  A    between atoms: _455  and  _456
REMARK  188  A    between atoms: _459  and  _461
REMARK  189  A    between atoms: _461  and  _462
REMARK  190  A    between atoms: _461  and  _464
REMARK  191  A    between atoms: _464  and  _465
REMARK  192  A    between atoms: _468  and  _470
REMARK  193  A    between atoms: _470  and  _471
REMARK  194  A    between atoms: _470  and  _473
REMARK  195  A    between atoms: _473  and  _474
REMARK  196  A    between atoms: _479  and  _481
REMARK  197  A    between atoms: _481  and  _482
REMARK  198  A    between atoms: _481  and  _484
REMARK  199  A    between atoms: _484  and  _485
REMARK  200  A    between atoms: _488  and  _490
REMARK  201  A    between atoms: _490  and  _491
REMARK  202  A    between atoms: _490  and  _493
REMARK  203  A    between atoms: _493  and  _494
REMARK  204  A    between atoms: _494  and  _495
REMARK  205  A    between atoms: _495  and  _496
REMARK  206  A    between atoms: _505  and  _507
REMARK  207  A    between atoms: _507  and  _508
REMARK  208  A    between atoms: _507  and  _510
REMARK  209  A    between atoms: _510  and  _511
REMARK  210  A    between atoms: _514  and  _516
REMARK  211  A    between atoms: _516  and  _517
REMARK  212  A    between atoms: _516  and  _519
REMARK  213  A    between atoms: _522  and  _524
REMARK  214  A    between atoms: _524  and  _525
REMARK  215  A    between atoms: _524  and  _527
REMARK  216  A    between atoms: _527  and  _528
REMARK  217  A    between atoms: _534  and  _536
REMARK  218  A    between atoms: _536  and  _537
REMARK  219  A    between atoms: _536  and  _539
REMARK  220  A    between atoms: _539  and  _540
REMARK  221  A    between atoms: _543  and  _545
REMARK  222  A    between atoms: _545  and  _546
REMARK  223  A    between atoms: _549  and  _551
REMARK  224  A    between atoms: _551  and  _552
REMARK  225  A    between atoms: _555  and  _557
REMARK  226  A    between atoms: _557  and  _558
REMARK  227  A    between atoms: _557  and  _560
REMARK  228  A    between atoms: _560  and  _561
REMARK  229  A    between atoms: _566  and  _567
REMARK  230  A    between atoms: _569  and  _571
REMARK  231  A    between atoms: _571  and  _572
REMARK  232  A    between atoms: _571  and  _574
REMARK  233  A    between atoms: _574  and  _575
REMARK                            x       y       z     vdW  Elec       q    Type
REMARK                         _______ _______ _______ _____ _____    ______ ____
ROOT
ATOM      1  O   HOH     1     -15.757 -16.412  -6.049  0.00  0.00    +0.000 OA
ENDROOT
TORSDOF 0
