REMARK  Name = ../refined-set-2016/2zq0/2zq0_pocket.pdb
REMARK  241 active torsions:
REMARK  status: ('A' for Active; 'I' for Inactive)
REMARK    1  A    between atoms: _1  and  _3
REMARK    2  A    between atoms: _3  and  _4
REMARK    3  A    between atoms: _3  and  _6
REMARK    4  A    between atoms: _6  and  _7
REMARK    5  A    between atoms: _10  and  _12
REMARK    6  A    between atoms: _12  and  _13
REMARK    7  A    between atoms: _12  and  _15
REMARK    8  A    between atoms: _15  and  _16
REMARK    9  A    between atoms: _16  and  _17
REMARK   10  A    between atoms: _22  and  _24
REMARK   11  A    between atoms: _24  and  _25
REMARK   12  A    between atoms: _24  and  _27
REMARK   13  A    between atoms: _27  and  _28
REMARK   14  A    between atoms: _28  and  _29
REMARK   15  A    between atoms: _29  and  _31
REMARK   16  A    between atoms: _31  and  CA_598
REMARK   17  A    between atoms: _32  and  _34
REMARK   18  A    between atoms: _34  and  _35
REMARK   19  A    between atoms: _34  and  _37
REMARK   20  A    between atoms: _37  and  _38
REMARK   21  A    between atoms: _42  and  _43
REMARK   22  A    between atoms: _48  and  _50
REMARK   23  A    between atoms: _50  and  _51
REMARK   24  A    between atoms: _50  and  _53
REMARK   25  A    between atoms: _53  and  _54
REMARK   26  A    between atoms: _59  and  _61
REMARK   27  A    between atoms: _61  and  _62
REMARK   28  A    between atoms: _61  and  _64
REMARK   29  A    between atoms: _64  and  _65
REMARK   30  A    between atoms: _67  and  _69
REMARK   31  A    between atoms: _69  and  _70
REMARK   32  A    between atoms: _69  and  _72
REMARK   33  A    between atoms: _72  and  _73
REMARK   34  A    between atoms: _75  and  _77
REMARK   35  A    between atoms: _77  and  _78
REMARK   36  A    between atoms: _77  and  _80
REMARK   37  A    between atoms: _80  and  _81
REMARK   38  A    between atoms: _81  and  _82
REMARK   39  A    between atoms: _87  and  _89
REMARK   40  A    between atoms: _89  and  _90
REMARK   41  A    between atoms: _89  and  _92
REMARK   42  A    between atoms: _92  and  _93
REMARK   43  A    between atoms: _98  and  _99
REMARK   44  A    between atoms: _101  and  _103
REMARK   45  A    between atoms: _103  and  _104
REMARK   46  A    between atoms: _103  and  _106
REMARK   47  A    between atoms: _109  and  _111
REMARK   48  A    between atoms: _111  and  _112
REMARK   49  A    between atoms: _111  and  _114
REMARK   50  A    between atoms: _114  and  _115
REMARK   51  A    between atoms: _125  and  _127
REMARK   52  A    between atoms: _127  and  _128
REMARK   53  A    between atoms: _127  and  _130
REMARK   54  A    between atoms: _130  and  _131
REMARK   55  A    between atoms: _141  and  _143
REMARK   56  A    between atoms: _143  and  _144
REMARK   57  A    between atoms: _143  and  _146
REMARK   58  A    between atoms: _146  and  _147
REMARK   59  A    between atoms: _147  and  _148
REMARK   60  A    between atoms: _150  and  _152
REMARK   61  A    between atoms: _152  and  _153
REMARK   62  A    between atoms: _152  and  _155
REMARK   63  A    between atoms: _155  and  _156
REMARK   64  A    between atoms: _159  and  _161
REMARK   65  A    between atoms: _161  and  _162
REMARK   66  A    between atoms: _161  and  _164
REMARK   67  A    between atoms: _164  and  _165
REMARK   68  A    between atoms: _168  and  _170
REMARK   69  A    between atoms: _170  and  _171
REMARK   70  A    between atoms: _170  and  _173
REMARK   71  A    between atoms: _173  and  _174
REMARK   72  A    between atoms: _184  and  _186
REMARK   73  A    between atoms: _186  and  _187
REMARK   74  A    between atoms: _186  and  _189
REMARK   75  A    between atoms: _189  and  _190
REMARK   76  A    between atoms: _193  and  _195
REMARK   77  A    between atoms: _195  and  _196
REMARK   78  A    between atoms: _195  and  _198
REMARK   79  A    between atoms: _198  and  _199
REMARK   80  A    between atoms: _199  and  _200
REMARK   81  A    between atoms: _203  and  _205
REMARK   82  A    between atoms: _205  and  _206
REMARK   83  A    between atoms: _208  and  _210
REMARK   84  A    between atoms: _210  and  _211
REMARK   85  A    between atoms: _210  and  _213
REMARK   86  A    between atoms: _213  and  _214
REMARK   87  A    between atoms: _224  and  _226
REMARK   88  A    between atoms: _226  and  _227
REMARK   89  A    between atoms: _226  and  _229
REMARK   90  A    between atoms: _229  and  _230
REMARK   91  A    between atoms: _240  and  _242
REMARK   92  A    between atoms: _242  and  _243
REMARK   93  A    between atoms: _242  and  _245
REMARK   94  A    between atoms: _245  and  _246
REMARK   95  A    between atoms: _252  and  _254
REMARK   96  A    between atoms: _254  and  _255
REMARK   97  A    between atoms: _254  and  _257
REMARK   98  A    between atoms: _257  and  _258
REMARK   99  A    between atoms: _264  and  _266
REMARK  100  A    between atoms: _266  and  _267
REMARK  101  A    between atoms: _266  and  _269
REMARK  102  A    between atoms: _269  and  _270
REMARK  103  A    between atoms: _275  and  _277
REMARK  104  A    between atoms: _277  and  _278
REMARK  105  A    between atoms: _277  and  _280
REMARK  106  A    between atoms: _280  and  _281
REMARK  107  A    between atoms: _286  and  _288
REMARK  108  A    between atoms: _288  and  _289
REMARK  109  A    between atoms: _288  and  _291
REMARK  110  A    between atoms: _291  and  _292
REMARK  111  A    between atoms: _292  and  _293
REMARK  112  A    between atoms: _296  and  _298
REMARK  113  A    between atoms: _298  and  _299
REMARK  114  A    between atoms: _298  and  _301
REMARK  115  A    between atoms: _301  and  _302
REMARK  116  A    between atoms: _305  and  _307
REMARK  117  A    between atoms: _307  and  _308
REMARK  118  A    between atoms: _307  and  _310
REMARK  119  A    between atoms: _310  and  _311
REMARK  120  A    between atoms: _313  and  _315
REMARK  121  A    between atoms: _315  and  _316
REMARK  122  A    between atoms: _315  and  _318
REMARK  123  A    between atoms: _318  and  _319
REMARK  124  A    between atoms: _319  and  _320
REMARK  125  A    between atoms: _320  and  _321
REMARK  126  A    between atoms: _321  and  _322
REMARK  127  A    between atoms: _326  and  _328
REMARK  128  A    between atoms: _328  and  _329
REMARK  129  A    between atoms: _328  and  _331
REMARK  130  A    between atoms: _331  and  _332
REMARK  131  A    between atoms: _334  and  _336
REMARK  132  A    between atoms: _336  and  _337
REMARK  133  A    between atoms: _339  and  _341
REMARK  134  A    between atoms: _341  and  _342
REMARK  135  A    between atoms: _341  and  _344
REMARK  136  A    between atoms: _344  and  _345
REMARK  137  A    between atoms: _350  and  _351
REMARK  138  A    between atoms: _353  and  _355
REMARK  139  A    between atoms: _355  and  _356
REMARK  140  A    between atoms: _355  and  _358
REMARK  141  A    between atoms: _361  and  _363
REMARK  142  A    between atoms: _363  and  _364
REMARK  143  A    between atoms: _366  and  _368
REMARK  144  A    between atoms: _368  and  _369
REMARK  145  A    between atoms: _368  and  _371
REMARK  146  A    between atoms: _371  and  _372
REMARK  147  A    between atoms: _377  and  _379
REMARK  148  A    between atoms: _379  and  _380
REMARK  149  A    between atoms: _383  and  _385
REMARK  150  A    between atoms: _385  and  _386
REMARK  151  A    between atoms: _385  and  _388
REMARK  152  A    between atoms: _388  and  _389
REMARK  153  A    between atoms: _394  and  _396
REMARK  154  A    between atoms: _396  and  _397
REMARK  155  A    between atoms: _396  and  _399
REMARK  156  A    between atoms: _399  and  _400
REMARK  157  A    between atoms: _400  and  _401
REMARK  158  A    between atoms: _401  and  _402
REMARK  159  A    between atoms: _402  and  CA_598
REMARK  160  A    between atoms: _404  and  _406
REMARK  161  A    between atoms: _406  and  _407
REMARK  162  A    between atoms: _406  and  _409
REMARK  163  A    between atoms: _409  and  _410
REMARK  164  A    between atoms: _410  and  _411
REMARK  165  A    between atoms: _414  and  _416
REMARK  166  A    between atoms: _416  and  _417
REMARK  167  A    between atoms: _416  and  _419
REMARK  168  A    between atoms: _419  and  _420
REMARK  169  A    between atoms: _422  and  _424
REMARK  170  A    between atoms: _424  and  _425
REMARK  171  A    between atoms: _428  and  _430
REMARK  172  A    between atoms: _430  and  _431
REMARK  173  A    between atoms: _430  and  _433
REMARK  174  A    between atoms: _433  and  _434
REMARK  175  A    between atoms: _434  and  _435
REMARK  176  A    between atoms: _435  and  _436
REMARK  177  A    between atoms: _445  and  _447
REMARK  178  A    between atoms: _447  and  _448
REMARK  179  A    between atoms: _450  and  _452
REMARK  180  A    between atoms: _452  and  _453
REMARK  181  A    between atoms: _452  and  _455
REMARK  182  A    between atoms: _455  and  _456
REMARK  183  A    between atoms: _459  and  _461
REMARK  184  A    between atoms: _461  and  _462
REMARK  185  A    between atoms: _461  and  _464
REMARK  186  A    between atoms: _464  and  _465
REMARK  187  A    between atoms: _465  and  _466
REMARK  188  A    between atoms: _469  and  _471
REMARK  189  A    between atoms: _471  and  _472
REMARK  190  A    between atoms: _471  and  _474
REMARK  191  A    between atoms: _474  and  _475
REMARK  192  A    between atoms: _480  and  _481
REMARK  193  A    between atoms: _483  and  _485
REMARK  194  A    between atoms: _485  and  _486
REMARK  195  A    between atoms: _485  and  _488
REMARK  196  A    between atoms: _488  and  _489
REMARK  197  A    between atoms: _489  and  _490
REMARK  198  A    between atoms: _493  and  _495
REMARK  199  A    between atoms: _495  and  _496
REMARK  200  A    between atoms: _495  and  _498
REMARK  201  A    between atoms: _498  and  _499
REMARK  202  A    between atoms: _501  and  _503
REMARK  203  A    between atoms: _503  and  _504
REMARK  204  A    between atoms: _503  and  _506
REMARK  205  A    between atoms: _506  and  _507
REMARK  206  A    between atoms: _513  and  _515
REMARK  207  A    between atoms: _515  and  _516
REMARK  208  A    between atoms: _518  and  _520
REMARK  209  A    between atoms: _520  and  _521
REMARK  210  A    between atoms: _523  and  _525
REMARK  211  A    between atoms: _525  and  _526
REMARK  212  A    between atoms: _525  and  _528
REMARK  213  A    between atoms: _528  and  _529
REMARK  214  A    between atoms: _532  and  _534
REMARK  215  A    between atoms: _534  and  _535
REMARK  216  A    between atoms: _534  and  _537
REMARK  217  A    between atoms: _537  and  _538
REMARK  218  A    between atoms: _541  and  _543
REMARK  219  A    between atoms: _543  and  _544
REMARK  220  A    between atoms: _547  and  _549
REMARK  221  A    between atoms: _549  and  _550
REMARK  222  A    between atoms: _549  and  _552
REMARK  223  A    between atoms: _552  and  _553
REMARK  224  A    between atoms: _558  and  _560
REMARK  225  A    between atoms: _560  and  _561
REMARK  226  A    between atoms: _560  and  _563
REMARK  227  A    between atoms: _563  and  _564
REMARK  228  A    between atoms: _569  and  _571
REMARK  229  A    between atoms: _571  and  _572
REMARK  230  A    between atoms: _571  and  _574
REMARK  231  A    between atoms: _574  and  _575
REMARK  232  A    between atoms: _577  and  _579
REMARK  233  A    between atoms: _579  and  _580
REMARK  234  A    between atoms: _579  and  _582
REMARK  235  A    between atoms: _582  and  _583
REMARK  236  A    between atoms: _583  and  _584
REMARK  237  A    between atoms: _589  and  _591
REMARK  238  A    between atoms: _591  and  _592
REMARK  239  A    between atoms: _591  and  _594
REMARK  240  A    between atoms: _594  and  _595
REMARK  241  A    between atoms: _595  and  _596
REMARK                            x       y       z     vdW  Elec       q    Type
REMARK                         _______ _______ _______ _____ _____    ______ ____
ROOT
ATOM      1  C   UNK A   4      35.675  53.155  36.943  0.00  0.00    +0.000 C 
ATOM      2  O   UNK A   4      35.920  52.176  37.681  0.00  0.00    +0.000 OA
ENDROOT
BRANCH   1   3
ATOM      3  C   UNK A   4      36.352  54.469  37.263  0.00  0.00    +0.000 C 
BRANCH   3   4
ATOM      4  C   UNK A   4      37.826  54.292  37.613  0.00  0.00    +0.000 C 
BRANCH   4   5
ATOM      5  C   UNK A   4      38.725  54.180  36.377  0.00  0.00    +0.000 C 
BRANCH   5   6
ATOM      6  N   UNK A   4      38.443  52.956  35.616  0.00  0.00    +0.000 N 
ATOM      7  C   UNK A   3      38.557  51.715  36.087  0.00  0.00    +0.000 C 
ATOM      8  O   UNK A   3      38.934  51.445  37.233  0.00  0.00    +0.000 OA
ATOM      9  H   UNK A   4      38.129  53.067  34.631  0.00  0.00    +0.000 HD
BRANCH   7  10
ATOM     10  C   UNK A   3      38.225  50.600  35.091  0.00  0.00    +0.000 C 
BRANCH  10  11
ATOM     11  N   UNK A   3      38.993  49.422  35.450  0.00  0.00    +0.000 N 
ATOM     12  H   UNK A   3      38.581  48.715  36.092  0.00  0.00    +0.000 HD
ATOM     13  C   ALA A   2      40.217  49.238  34.967  0.00  0.00    +0.000 C 
ATOM     14  O   ALA A   2      40.751  50.016  34.180  0.00  0.00    +0.000 OA
BRANCH  13  15
ATOM     15  CA  ALA A   2      40.947  47.999  35.458  0.00  0.00    +0.000 C 
ATOM     16  CB  ALA A   2      42.221  48.426  36.190  0.00  0.00    +0.000 C 
BRANCH  15  17
ATOM     17  N   ALA A   2      41.276  46.961  34.485  0.00  0.00    +0.000 N 
ATOM     18  C   ASN A   1      40.539  45.859  34.367  0.00  0.00    +0.000 C 
ATOM     19  O   ASN A   1      39.511  45.674  35.013  0.00  0.00    +0.000 OA
ATOM     20  H   ALA A   2      42.105  47.086  33.870  0.00  0.00    +0.000 HD
BRANCH  18  21
ATOM     21  CA  ASN A   1      41.033  44.807  33.374  0.00  0.00    +0.000 C 
BRANCH  21  22
ATOM     22  N   ASN A   1      41.746  43.842  34.215  0.00  0.00    +0.000 NA
ATOM     23  H   ASN A   1      41.259  43.486  35.062  0.00  0.00    +0.000 HD
ENDBRANCH  21  22
BRANCH  21  24
ATOM     24  CB  ASN A   1      39.848  44.129  32.673  0.00  0.00    +0.000 C 
BRANCH  24  25
ATOM     25  CG  ASN A   1      38.856  45.126  32.097  0.00  0.00    +0.000 C 
ATOM     26  ND2 ASN A   1      37.597  44.718  32.009  0.00  0.00    +0.000 N 
ATOM     27 HD21 ASN A   1      37.335  43.765  32.333  0.00  0.00    +0.000 HD
ATOM     28 HD22 ASN A   1      36.872  45.351  31.616  0.00  0.00    +0.000 HD
ATOM     29  OD1 ASN A   1      39.219  46.241  31.729  0.00  0.00    +0.000 OA
ENDBRANCH  24  25
ENDBRANCH  21  24
ENDBRANCH  18  21
ENDBRANCH  15  17
ENDBRANCH  13  15
ENDBRANCH  10  11
BRANCH  10  30
ATOM     30  C   UNK A   3      36.723  50.289  35.087  0.00  0.00    +0.000 C 
BRANCH  30  31
ATOM     31  C   UNK A   3      36.276  49.501  33.892  0.00  0.00    +0.000 A 
ATOM     32  N   UNK A   3      35.064  49.715  33.270  0.00  0.00    +0.000 NA
ATOM     33  C   UNK A   3      34.947  48.895  32.240  0.00  0.00    +0.000 A 
ATOM     34  N   UNK A   3      36.037  48.152  32.174  0.00  0.00    +0.000 NA
ATOM     35  C   UNK A   3      36.885  48.511  33.197  0.00  0.00    +0.000 A 
ENDBRANCH  30  31
ENDBRANCH  10  30
ENDBRANCH   7  10
ENDBRANCH   5   6
BRANCH   5  36
ATOM     36  C   UNK A   4      40.180  54.373  36.785  0.00  0.00    +0.000 C 
ATOM     37  O   UNK A   4      40.509  55.324  37.494  0.00  0.00    +0.000 OA
ENDBRANCH   5  36
ENDBRANCH   4   5
ENDBRANCH   3   4
ENDBRANCH   1   3
BRANCH   1  38
ATOM     38  O   UNK A   4      34.896  53.105  35.965  0.00  0.00    +0.000 OA
BRANCH  38  39
ATOM     39 CA   UNK A   4      33.379  53.724  34.354  0.00  0.00    +0.000 Ca
BRANCH  39  40
ATOM     40  O   UNK A   3      34.259  55.740  33.595  0.00  0.00    +0.000 OA
BRANCH  40  41
ATOM     41  C   UNK A   3      34.063  56.978  33.612  0.00  0.00    +0.000 C 
ATOM     42  O   UNK A   3      33.244  57.519  34.384  0.00  0.00    +0.000 OA
BRANCH  41  43
ATOM     43  C   UNK A   3      34.887  57.845  32.668  0.00  0.00    +0.000 C 
BRANCH  43  44
ATOM     44  C   UNK A   3      34.130  59.033  32.060  0.00  0.00    +0.000 C 
BRANCH  44  45
ATOM     45  C   UNK A   3      34.993  59.799  31.043  0.00  0.00    +0.000 C 
BRANCH  45  47
ATOM     46  C   ALA A   2      37.347  60.403  30.961  0.00  0.00    +0.000 C 
ATOM     47  N   UNK A   3      36.243  60.212  31.681  0.00  0.00    +0.000 N 
ATOM     48  H   UNK A   3      36.270  60.358  32.710  0.00  0.00    +0.000 HD
ATOM     49  O   ALA A   2      37.370  60.285  29.741  0.00  0.00    +0.000 OA
BRANCH  46  50
ATOM     50  CA  ALA A   2      38.615  60.778  31.723  0.00  0.00    +0.000 C 
BRANCH  50  53
ATOM     51  C   ASN A   1      38.578  61.461  34.069  0.00  0.00    +0.000 C 
ATOM     52  O   ASN A   1      39.131  62.535  33.833  0.00  0.00    +0.000 OA
ATOM     53  N   ALA A   2      38.331  60.546  33.136  0.00  0.00    +0.000 N 
ATOM     54  H   ALA A   2      37.922  59.634  33.423  0.00  0.00    +0.000 HD
BRANCH  51  55
ATOM     55  CA  ASN A   1      38.156  61.094  35.486  0.00  0.00    +0.000 C 
BRANCH  55  56
ATOM     56  N   ASN A   1      38.923  61.801  36.509  0.00  0.00    +0.000 NA
ATOM     57  H   ASN A   1      39.242  62.776  36.339  0.00  0.00    +0.000 HD
ENDBRANCH  55  56
BRANCH  55  58
ATOM     58  CB  ASN A   1      36.633  61.374  35.615  0.00  0.00    +0.000 C 
ATOM     59  CG2 ASN A   1      36.317  62.826  35.264  0.00  0.00    +0.000 C 
BRANCH  58  60
ATOM     60  OG1 ASN A   1      35.911  60.512  34.723  0.00  0.00    +0.000 OA
ATOM     61  HG1 ASN A   1      36.095  59.568  34.958  0.00  0.00    +0.000 HD
ENDBRANCH  58  60
ENDBRANCH  55  58
ENDBRANCH  51  55
ENDBRANCH  50  53
BRANCH  50  62
ATOM     62  CB  ALA A   2      39.757  59.890  31.198  0.00  0.00    +0.000 C 
BRANCH  62  63
ATOM     63  CG  ALA A   2      40.893  59.629  32.169  0.00  0.00    +0.000 C 
BRANCH  63  64
ATOM     64  CD  ALA A   2      40.775  58.267  32.822  0.00  0.00    +0.000 C 
ATOM     65  NE2 ALA A   2      41.909  57.671  33.164  0.00  0.00    +0.000 N 
ATOM     66 HE21 ALA A   2      41.888  56.741  33.629  0.00  0.00    +0.000 HD
ATOM     67 HE22 ALA A   2      42.819  58.134  32.967  0.00  0.00    +0.000 HD
ATOM     68  OE1 ALA A   2      39.670  57.765  33.031  0.00  0.00    +0.000 OA
ENDBRANCH  63  64
ENDBRANCH  62  63
ENDBRANCH  50  62
ENDBRANCH  46  50
ENDBRANCH  45  47
BRANCH  45  69
ATOM     69  C   UNK A   3      34.208  60.940  30.397  0.00  0.00    +0.000 C 
ATOM     70  O   UNK A   3      32.987  61.031  30.524  0.00  0.00    +0.000 OA
ENDBRANCH  45  69
ENDBRANCH  44  45
ENDBRANCH  43  44
ENDBRANCH  41  43
ENDBRANCH  40  41
ENDBRANCH  39  40
ENDBRANCH  38  39
ENDBRANCH   1  38
TORSDOF 33
REMARK  Name = ../refined-set-2016/2zq0/2zq0_pocket.pdb
REMARK  241 active torsions:
REMARK  status: ('A' for Active; 'I' for Inactive)
REMARK    1  A    between atoms: _1  and  _3
REMARK    2  A    between atoms: _3  and  _4
REMARK    3  A    between atoms: _3  and  _6
REMARK    4  A    between atoms: _6  and  _7
REMARK    5  A    between atoms: _10  and  _12
REMARK    6  A    between atoms: _12  and  _13
REMARK    7  A    between atoms: _12  and  _15
REMARK    8  A    between atoms: _15  and  _16
REMARK    9  A    between atoms: _16  and  _17
REMARK   10  A    between atoms: _22  and  _24
REMARK   11  A    between atoms: _24  and  _25
REMARK   12  A    between atoms: _24  and  _27
REMARK   13  A    between atoms: _27  and  _28
REMARK   14  A    between atoms: _28  and  _29
REMARK   15  A    between atoms: _29  and  _31
REMARK   16  A    between atoms: _31  and  CA_598
REMARK   17  A    between atoms: _32  and  _34
REMARK   18  A    between atoms: _34  and  _35
REMARK   19  A    between atoms: _34  and  _37
REMARK   20  A    between atoms: _37  and  _38
REMARK   21  A    between atoms: _42  and  _43
REMARK   22  A    between atoms: _48  and  _50
REMARK   23  A    between atoms: _50  and  _51
REMARK   24  A    between atoms: _50  and  _53
REMARK   25  A    between atoms: _53  and  _54
REMARK   26  A    between atoms: _59  and  _61
REMARK   27  A    between atoms: _61  and  _62
REMARK   28  A    between atoms: _61  and  _64
REMARK   29  A    between atoms: _64  and  _65
REMARK   30  A    between atoms: _67  and  _69
REMARK   31  A    between atoms: _69  and  _70
REMARK   32  A    between atoms: _69  and  _72
REMARK   33  A    between atoms: _72  and  _73
REMARK   34  A    between atoms: _75  and  _77
REMARK   35  A    between atoms: _77  and  _78
REMARK   36  A    between atoms: _77  and  _80
REMARK   37  A    between atoms: _80  and  _81
REMARK   38  A    between atoms: _81  and  _82
REMARK   39  A    between atoms: _87  and  _89
REMARK   40  A    between atoms: _89  and  _90
REMARK   41  A    between atoms: _89  and  _92
REMARK   42  A    between atoms: _92  and  _93
REMARK   43  A    between atoms: _98  and  _99
REMARK   44  A    between atoms: _101  and  _103
REMARK   45  A    between atoms: _103  and  _104
REMARK   46  A    between atoms: _103  and  _106
REMARK   47  A    between atoms: _109  and  _111
REMARK   48  A    between atoms: _111  and  _112
REMARK   49  A    between atoms: _111  and  _114
REMARK   50  A    between atoms: _114  and  _115
REMARK   51  A    between atoms: _125  and  _127
REMARK   52  A    between atoms: _127  and  _128
REMARK   53  A    between atoms: _127  and  _130
REMARK   54  A    between atoms: _130  and  _131
REMARK   55  A    between atoms: _141  and  _143
REMARK   56  A    between atoms: _143  and  _144
REMARK   57  A    between atoms: _143  and  _146
REMARK   58  A    between atoms: _146  and  _147
REMARK   59  A    between atoms: _147  and  _148
REMARK   60  A    between atoms: _150  and  _152
REMARK   61  A    between atoms: _152  and  _153
REMARK   62  A    between atoms: _152  and  _155
REMARK   63  A    between atoms: _155  and  _156
REMARK   64  A    between atoms: _159  and  _161
REMARK   65  A    between atoms: _161  and  _162
REMARK   66  A    between atoms: _161  and  _164
REMARK   67  A    between atoms: _164  and  _165
REMARK   68  A    between atoms: _168  and  _170
REMARK   69  A    between atoms: _170  and  _171
REMARK   70  A    between atoms: _170  and  _173
REMARK   71  A    between atoms: _173  and  _174
REMARK   72  A    between atoms: _184  and  _186
REMARK   73  A    between atoms: _186  and  _187
REMARK   74  A    between atoms: _186  and  _189
REMARK   75  A    between atoms: _189  and  _190
REMARK   76  A    between atoms: _193  and  _195
REMARK   77  A    between atoms: _195  and  _196
REMARK   78  A    between atoms: _195  and  _198
REMARK   79  A    between atoms: _198  and  _199
REMARK   80  A    between atoms: _199  and  _200
REMARK   81  A    between atoms: _203  and  _205
REMARK   82  A    between atoms: _205  and  _206
REMARK   83  A    between atoms: _208  and  _210
REMARK   84  A    between atoms: _210  and  _211
REMARK   85  A    between atoms: _210  and  _213
REMARK   86  A    between atoms: _213  and  _214
REMARK   87  A    between atoms: _224  and  _226
REMARK   88  A    between atoms: _226  and  _227
REMARK   89  A    between atoms: _226  and  _229
REMARK   90  A    between atoms: _229  and  _230
REMARK   91  A    between atoms: _240  and  _242
REMARK   92  A    between atoms: _242  and  _243
REMARK   93  A    between atoms: _242  and  _245
REMARK   94  A    between atoms: _245  and  _246
REMARK   95  A    between atoms: _252  and  _254
REMARK   96  A    between atoms: _254  and  _255
REMARK   97  A    between atoms: _254  and  _257
REMARK   98  A    between atoms: _257  and  _258
REMARK   99  A    between atoms: _264  and  _266
REMARK  100  A    between atoms: _266  and  _267
REMARK  101  A    between atoms: _266  and  _269
REMARK  102  A    between atoms: _269  and  _270
REMARK  103  A    between atoms: _275  and  _277
REMARK  104  A    between atoms: _277  and  _278
REMARK  105  A    between atoms: _277  and  _280
REMARK  106  A    between atoms: _280  and  _281
REMARK  107  A    between atoms: _286  and  _288
REMARK  108  A    between atoms: _288  and  _289
REMARK  109  A    between atoms: _288  and  _291
REMARK  110  A    between atoms: _291  and  _292
REMARK  111  A    between atoms: _292  and  _293
REMARK  112  A    between atoms: _296  and  _298
REMARK  113  A    between atoms: _298  and  _299
REMARK  114  A    between atoms: _298  and  _301
REMARK  115  A    between atoms: _301  and  _302
REMARK  116  A    between atoms: _305  and  _307
REMARK  117  A    between atoms: _307  and  _308
REMARK  118  A    between atoms: _307  and  _310
REMARK  119  A    between atoms: _310  and  _311
REMARK  120  A    between atoms: _313  and  _315
REMARK  121  A    between atoms: _315  and  _316
REMARK  122  A    between atoms: _315  and  _318
REMARK  123  A    between atoms: _318  and  _319
REMARK  124  A    between atoms: _319  and  _320
REMARK  125  A    between atoms: _320  and  _321
REMARK  126  A    between atoms: _321  and  _322
REMARK  127  A    between atoms: _326  and  _328
REMARK  128  A    between atoms: _328  and  _329
REMARK  129  A    between atoms: _328  and  _331
REMARK  130  A    between atoms: _331  and  _332
REMARK  131  A    between atoms: _334  and  _336
REMARK  132  A    between atoms: _336  and  _337
REMARK  133  A    between atoms: _339  and  _341
REMARK  134  A    between atoms: _341  and  _342
REMARK  135  A    between atoms: _341  and  _344
REMARK  136  A    between atoms: _344  and  _345
REMARK  137  A    between atoms: _350  and  _351
REMARK  138  A    between atoms: _353  and  _355
REMARK  139  A    between atoms: _355  and  _356
REMARK  140  A    between atoms: _355  and  _358
REMARK  141  A    between atoms: _361  and  _363
REMARK  142  A    between atoms: _363  and  _364
REMARK  143  A    between atoms: _366  and  _368
REMARK  144  A    between atoms: _368  and  _369
REMARK  145  A    between atoms: _368  and  _371
REMARK  146  A    between atoms: _371  and  _372
REMARK  147  A    between atoms: _377  and  _379
REMARK  148  A    between atoms: _379  and  _380
REMARK  149  A    between atoms: _383  and  _385
REMARK  150  A    between atoms: _385  and  _386
REMARK  151  A    between atoms: _385  and  _388
REMARK  152  A    between atoms: _388  and  _389
REMARK  153  A    between atoms: _394  and  _396
REMARK  154  A    between atoms: _396  and  _397
REMARK  155  A    between atoms: _396  and  _399
REMARK  156  A    between atoms: _399  and  _400
REMARK  157  A    between atoms: _400  and  _401
REMARK  158  A    between atoms: _401  and  _402
REMARK  159  A    between atoms: _402  and  CA_598
REMARK  160  A    between atoms: _404  and  _406
REMARK  161  A    between atoms: _406  and  _407
REMARK  162  A    between atoms: _406  and  _409
REMARK  163  A    between atoms: _409  and  _410
REMARK  164  A    between atoms: _410  and  _411
REMARK  165  A    between atoms: _414  and  _416
REMARK  166  A    between atoms: _416  and  _417
REMARK  167  A    between atoms: _416  and  _419
REMARK  168  A    between atoms: _419  and  _420
REMARK  169  A    between atoms: _422  and  _424
REMARK  170  A    between atoms: _424  and  _425
REMARK  171  A    between atoms: _428  and  _430
REMARK  172  A    between atoms: _430  and  _431
REMARK  173  A    between atoms: _430  and  _433
REMARK  174  A    between atoms: _433  and  _434
REMARK  175  A    between atoms: _434  and  _435
REMARK  176  A    between atoms: _435  and  _436
REMARK  177  A    between atoms: _445  and  _447
REMARK  178  A    between atoms: _447  and  _448
REMARK  179  A    between atoms: _450  and  _452
REMARK  180  A    between atoms: _452  and  _453
REMARK  181  A    between atoms: _452  and  _455
REMARK  182  A    between atoms: _455  and  _456
REMARK  183  A    between atoms: _459  and  _461
REMARK  184  A    between atoms: _461  and  _462
REMARK  185  A    between atoms: _461  and  _464
REMARK  186  A    between atoms: _464  and  _465
REMARK  187  A    between atoms: _465  and  _466
REMARK  188  A    between atoms: _469  and  _471
REMARK  189  A    between atoms: _471  and  _472
REMARK  190  A    between atoms: _471  and  _474
REMARK  191  A    between atoms: _474  and  _475
REMARK  192  A    between atoms: _480  and  _481
REMARK  193  A    between atoms: _483  and  _485
REMARK  194  A    between atoms: _485  and  _486
REMARK  195  A    between atoms: _485  and  _488
REMARK  196  A    between atoms: _488  and  _489
REMARK  197  A    between atoms: _489  and  _490
REMARK  198  A    between atoms: _493  and  _495
REMARK  199  A    between atoms: _495  and  _496
REMARK  200  A    between atoms: _495  and  _498
REMARK  201  A    between atoms: _498  and  _499
REMARK  202  A    between atoms: _501  and  _503
REMARK  203  A    between atoms: _503  and  _504
REMARK  204  A    between atoms: _503  and  _506
REMARK  205  A    between atoms: _506  and  _507
REMARK  206  A    between atoms: _513  and  _515
REMARK  207  A    between atoms: _515  and  _516
REMARK  208  A    between atoms: _518  and  _520
REMARK  209  A    between atoms: _520  and  _521
REMARK  210  A    between atoms: _523  and  _525
REMARK  211  A    between atoms: _525  and  _526
REMARK  212  A    between atoms: _525  and  _528
REMARK  213  A    between atoms: _528  and  _529
REMARK  214  A    between atoms: _532  and  _534
REMARK  215  A    between atoms: _534  and  _535
REMARK  216  A    between atoms: _534  and  _537
REMARK  217  A    between atoms: _537  and  _538
REMARK  218  A    between atoms: _541  and  _543
REMARK  219  A    between atoms: _543  and  _544
REMARK  220  A    between atoms: _547  and  _549
REMARK  221  A    between atoms: _549  and  _550
REMARK  222  A    between atoms: _549  and  _552
REMARK  223  A    between atoms: _552  and  _553
REMARK  224  A    between atoms: _558  and  _560
REMARK  225  A    between atoms: _560  and  _561
REMARK  226  A    between atoms: _560  and  _563
REMARK  227  A    between atoms: _563  and  _564
REMARK  228  A    between atoms: _569  and  _571
REMARK  229  A    between atoms: _571  and  _572
REMARK  230  A    between atoms: _571  and  _574
REMARK  231  A    between atoms: _574  and  _575
REMARK  232  A    between atoms: _577  and  _579
REMARK  233  A    between atoms: _579  and  _580
REMARK  234  A    between atoms: _579  and  _582
REMARK  235  A    between atoms: _582  and  _583
REMARK  236  A    between atoms: _583  and  _584
REMARK  237  A    between atoms: _589  and  _591
REMARK  238  A    between atoms: _591  and  _592
REMARK  239  A    between atoms: _591  and  _594
REMARK  240  A    between atoms: _594  and  _595
REMARK  241  A    between atoms: _595  and  _596
REMARK                            x       y       z     vdW  Elec       q    Type
REMARK                         _______ _______ _______ _____ _____    ______ ____
ROOT
ATOM      1  C   ASN A   3      31.007  62.449  38.450  0.00  0.00    +0.241 C 
ATOM      2  O   ASN A   3      31.208  63.364  39.246  0.00  0.00    -0.273 OA
ATOM      3  N   SER A   4      30.909  61.171  38.814  0.00  0.00    -0.295 N 
ATOM      4  H   SER A   4      30.751  60.456  38.076  0.00  0.00    +0.150 HD
ENDROOT
BRANCH   3   5
ATOM      5  CA  SER A   4      31.014  60.727  40.204  0.00  0.00    +0.178 C 
BRANCH   5   6
ATOM      6  C   SER A   4      32.246  61.250  40.946  0.00  0.00    +0.243 C 
ATOM      7  O   SER A   4      32.187  61.520  42.144  0.00  0.00    -0.273 OA
ATOM      8  N   SER A   5      33.359  61.382  40.237  0.00  0.00    -0.295 N 
ATOM      9  H   SER A   5      33.353  61.129  39.228  0.00  0.00    +0.150 HD
BRANCH   8  10
ATOM     10  CA  SER A   5      34.594  61.875  40.843  0.00  0.00    +0.178 C 
BRANCH  10  11
ATOM     11  C   SER A   5      35.363  62.625  39.771  0.00  0.00    +0.243 C 
ATOM     12  N   GLN A   6      35.492  63.935  39.943  0.00  0.00    -0.298 N 
ATOM     13  H   GLN A   6      35.090  64.383  40.791  0.00  0.00    +0.150 HD
ATOM     14  O   SER A   5      35.830  62.029  38.803  0.00  0.00    -0.273 OA
BRANCH  12  15
ATOM     15  CA  GLN A   6      36.188  64.753  38.961  0.00  0.00    +0.137 C 
BRANCH  15  16
ATOM     16  C   GLN A   6      36.856  65.958  39.599  0.00  0.00    +0.227 C 
ATOM     17  O   GLN A   6      36.303  66.579  40.512  0.00  0.00    -0.286 OA
ENDBRANCH  15  16
BRANCH  15  18
ATOM     18  CB  GLN A   6      35.196  65.227  37.895  0.00  0.00    +0.037 C 
BRANCH  18  19
ATOM     19  CG  GLN A   6      33.982  65.941  38.483  0.00  0.00    +0.087 C 
BRANCH  19  20
ATOM     20  CD  GLN A   6      32.919  66.279  37.452  0.00  0.00    +0.219 C 
ATOM     21  OE1 GLN A   6      31.774  66.569  37.806  0.00  0.00    -0.275 OA
ATOM     22  NE2 GLN A   6      33.289  66.254  36.175  0.00  0.00    -0.329 N 
ATOM     23 HE21 GLN A   6      34.266  66.004  35.922  0.00  0.00    +0.145 HD
ATOM     24 HE22 GLN A   6      32.601  66.485  35.430  0.00  0.00    +0.145 HD
ENDBRANCH  19  20
ENDBRANCH  18  19
ENDBRANCH  15  18
ENDBRANCH  12  15
ENDBRANCH  10  11
BRANCH  10  25
ATOM     25  CB  SER A   5      35.437  60.706  41.367  0.00  0.00    +0.166 C 
BRANCH  25  26
ATOM     26  OG  SER A   5      36.655  61.164  41.935  0.00  0.00    -0.380 OA
ATOM     27  H   SER A   5      37.176  60.389  42.264  0.00  0.00    +0.211 HD
ENDBRANCH  25  26
ENDBRANCH  10  25
ENDBRANCH   8  10
ENDBRANCH   5   6
BRANCH   5  28
ATOM     28  CB  SER A   4      30.997  59.196  40.261  0.00  0.00    +0.166 C 
BRANCH  28  29
ATOM     29  OG  SER A   4      32.006  58.642  39.426  0.00  0.00    -0.380 OA
ATOM     30  H   SER A   4      31.851  58.927  38.490  0.00  0.00    +0.211 HD
ENDBRANCH  28  29
ENDBRANCH   5  28
ENDBRANCH   3   5
BRANCH   1  31
ATOM     31  CA  ASN A   3      30.860  62.738  36.957  0.00  0.00    +0.158 C 
BRANCH  31  33
ATOM     32  C   PRO A   2      29.552  64.340  35.667  0.00  0.00    +0.241 C 
ATOM     33  N   ASN A   3      30.283  64.062  36.744  0.00  0.00    -0.297 N 
ATOM     34  H   ASN A   3      30.447  64.806  37.451  0.00  0.00    +0.150 HD
ATOM     35  O   PRO A   2      29.324  63.517  34.779  0.00  0.00    -0.273 OA
BRANCH  32  38
ATOM     36  C   THR A   1      30.195  66.604  33.620  0.00  0.00    +0.244 C 
ATOM     37  N   PRO A   2      29.040  66.413  34.277  0.00  0.00    -0.272 N 
ATOM     38  CA  PRO A   2      28.983  65.756  35.590  0.00  0.00    +0.152 C 
ATOM     39  CB  PRO A   2      27.491  65.785  35.924  0.00  0.00    +0.031 C 
ATOM     40  CG  PRO A   2      27.014  67.024  35.227  0.00  0.00    +0.024 C 
ATOM     41  CD  PRO A   2      27.708  66.914  33.890  0.00  0.00    +0.094 C 
ATOM     42  O   THR A   1      31.273  66.239  34.085  0.00  0.00    -0.273 OA
BRANCH  36  43
ATOM     43  CA  THR A   1      30.134  67.309  32.261  0.00  0.00    +0.172 C 
BRANCH  43  44
ATOM     44  N   THR A   1      31.453  67.811  31.908  0.00  0.00    -0.236 NA
ATOM     45  H   THR A   1      32.125  67.174  31.434  0.00  0.00    +0.142 HD
ENDBRANCH  43  44
BRANCH  43  46
ATOM     46  CB  THR A   1      29.623  66.345  31.177  0.00  0.00    +0.135 C 
ATOM     47  CG2 THR A   1      29.314  67.113  29.898  0.00  0.00    +0.034 C 
BRANCH  46  48
ATOM     48  OG1 THR A   1      30.625  65.359  30.895  0.00  0.00    -0.383 OA
ATOM     49  HG1 THR A   1      30.291  64.741  30.197  0.00  0.00    +0.210 HD
ENDBRANCH  46  48
ENDBRANCH  43  46
ENDBRANCH  36  43
ENDBRANCH  32  38
ENDBRANCH  31  33
BRANCH  31  50
ATOM     50  CB  ASN A   3      32.222  62.629  36.266  0.00  0.00    +0.114 C 
BRANCH  50  51
ATOM     51  CG  ASN A   3      32.809  61.234  36.360  0.00  0.00    +0.222 C 
ATOM     52  OD1 ASN A   3      33.341  60.836  37.399  0.00  0.00    -0.275 OA
ATOM     53  ND2 ASN A   3      32.702  60.475  35.275  0.00  0.00    -0.329 N 
ATOM     54 HD21 ASN A   3      33.075  59.504  35.281  0.00  0.00    +0.145 HD
ATOM     55 HD22 ASN A   3      32.245  60.852  34.420  0.00  0.00    +0.145 HD
ENDBRANCH  50  51
ENDBRANCH  31  50
ENDBRANCH   1  31
TORSDOF 22
REMARK  Name = ../refined-set-2016/2zq0/2zq0_pocket.pdb
REMARK  241 active torsions:
REMARK  status: ('A' for Active; 'I' for Inactive)
REMARK    1  A    between atoms: _1  and  _3
REMARK    2  A    between atoms: _3  and  _4
REMARK    3  A    between atoms: _3  and  _6
REMARK    4  A    between atoms: _6  and  _7
REMARK    5  A    between atoms: _10  and  _12
REMARK    6  A    between atoms: _12  and  _13
REMARK    7  A    between atoms: _12  and  _15
REMARK    8  A    between atoms: _15  and  _16
REMARK    9  A    between atoms: _16  and  _17
REMARK   10  A    between atoms: _22  and  _24
REMARK   11  A    between atoms: _24  and  _25
REMARK   12  A    between atoms: _24  and  _27
REMARK   13  A    between atoms: _27  and  _28
REMARK   14  A    between atoms: _28  and  _29
REMARK   15  A    between atoms: _29  and  _31
REMARK   16  A    between atoms: _31  and  CA_598
REMARK   17  A    between atoms: _32  and  _34
REMARK   18  A    between atoms: _34  and  _35
REMARK   19  A    between atoms: _34  and  _37
REMARK   20  A    between atoms: _37  and  _38
REMARK   21  A    between atoms: _42  and  _43
REMARK   22  A    between atoms: _48  and  _50
REMARK   23  A    between atoms: _50  and  _51
REMARK   24  A    between atoms: _50  and  _53
REMARK   25  A    between atoms: _53  and  _54
REMARK   26  A    between atoms: _59  and  _61
REMARK   27  A    between atoms: _61  and  _62
REMARK   28  A    between atoms: _61  and  _64
REMARK   29  A    between atoms: _64  and  _65
REMARK   30  A    between atoms: _67  and  _69
REMARK   31  A    between atoms: _69  and  _70
REMARK   32  A    between atoms: _69  and  _72
REMARK   33  A    between atoms: _72  and  _73
REMARK   34  A    between atoms: _75  and  _77
REMARK   35  A    between atoms: _77  and  _78
REMARK   36  A    between atoms: _77  and  _80
REMARK   37  A    between atoms: _80  and  _81
REMARK   38  A    between atoms: _81  and  _82
REMARK   39  A    between atoms: _87  and  _89
REMARK   40  A    between atoms: _89  and  _90
REMARK   41  A    between atoms: _89  and  _92
REMARK   42  A    between atoms: _92  and  _93
REMARK   43  A    between atoms: _98  and  _99
REMARK   44  A    between atoms: _101  and  _103
REMARK   45  A    between atoms: _103  and  _104
REMARK   46  A    between atoms: _103  and  _106
REMARK   47  A    between atoms: _109  and  _111
REMARK   48  A    between atoms: _111  and  _112
REMARK   49  A    between atoms: _111  and  _114
REMARK   50  A    between atoms: _114  and  _115
REMARK   51  A    between atoms: _125  and  _127
REMARK   52  A    between atoms: _127  and  _128
REMARK   53  A    between atoms: _127  and  _130
REMARK   54  A    between atoms: _130  and  _131
REMARK   55  A    between atoms: _141  and  _143
REMARK   56  A    between atoms: _143  and  _144
REMARK   57  A    between atoms: _143  and  _146
REMARK   58  A    between atoms: _146  and  _147
REMARK   59  A    between atoms: _147  and  _148
REMARK   60  A    between atoms: _150  and  _152
REMARK   61  A    between atoms: _152  and  _153
REMARK   62  A    between atoms: _152  and  _155
REMARK   63  A    between atoms: _155  and  _156
REMARK   64  A    between atoms: _159  and  _161
REMARK   65  A    between atoms: _161  and  _162
REMARK   66  A    between atoms: _161  and  _164
REMARK   67  A    between atoms: _164  and  _165
REMARK   68  A    between atoms: _168  and  _170
REMARK   69  A    between atoms: _170  and  _171
REMARK   70  A    between atoms: _170  and  _173
REMARK   71  A    between atoms: _173  and  _174
REMARK   72  A    between atoms: _184  and  _186
REMARK   73  A    between atoms: _186  and  _187
REMARK   74  A    between atoms: _186  and  _189
REMARK   75  A    between atoms: _189  and  _190
REMARK   76  A    between atoms: _193  and  _195
REMARK   77  A    between atoms: _195  and  _196
REMARK   78  A    between atoms: _195  and  _198
REMARK   79  A    between atoms: _198  and  _199
REMARK   80  A    between atoms: _199  and  _200
REMARK   81  A    between atoms: _203  and  _205
REMARK   82  A    between atoms: _205  and  _206
REMARK   83  A    between atoms: _208  and  _210
REMARK   84  A    between atoms: _210  and  _211
REMARK   85  A    between atoms: _210  and  _213
REMARK   86  A    between atoms: _213  and  _214
REMARK   87  A    between atoms: _224  and  _226
REMARK   88  A    between atoms: _226  and  _227
REMARK   89  A    between atoms: _226  and  _229
REMARK   90  A    between atoms: _229  and  _230
REMARK   91  A    between atoms: _240  and  _242
REMARK   92  A    between atoms: _242  and  _243
REMARK   93  A    between atoms: _242  and  _245
REMARK   94  A    between atoms: _245  and  _246
REMARK   95  A    between atoms: _252  and  _254
REMARK   96  A    between atoms: _254  and  _255
REMARK   97  A    between atoms: _254  and  _257
REMARK   98  A    between atoms: _257  and  _258
REMARK   99  A    between atoms: _264  and  _266
REMARK  100  A    between atoms: _266  and  _267
REMARK  101  A    between atoms: _266  and  _269
REMARK  102  A    between atoms: _269  and  _270
REMARK  103  A    between atoms: _275  and  _277
REMARK  104  A    between atoms: _277  and  _278
REMARK  105  A    between atoms: _277  and  _280
REMARK  106  A    between atoms: _280  and  _281
REMARK  107  A    between atoms: _286  and  _288
REMARK  108  A    between atoms: _288  and  _289
REMARK  109  A    between atoms: _288  and  _291
REMARK  110  A    between atoms: _291  and  _292
REMARK  111  A    between atoms: _292  and  _293
REMARK  112  A    between atoms: _296  and  _298
REMARK  113  A    between atoms: _298  and  _299
REMARK  114  A    between atoms: _298  and  _301
REMARK  115  A    between atoms: _301  and  _302
REMARK  116  A    between atoms: _305  and  _307
REMARK  117  A    between atoms: _307  and  _308
REMARK  118  A    between atoms: _307  and  _310
REMARK  119  A    between atoms: _310  and  _311
REMARK  120  A    between atoms: _313  and  _315
REMARK  121  A    between atoms: _315  and  _316
REMARK  122  A    between atoms: _315  and  _318
REMARK  123  A    between atoms: _318  and  _319
REMARK  124  A    between atoms: _319  and  _320
REMARK  125  A    between atoms: _320  and  _321
REMARK  126  A    between atoms: _321  and  _322
REMARK  127  A    between atoms: _326  and  _328
REMARK  128  A    between atoms: _328  and  _329
REMARK  129  A    between atoms: _328  and  _331
REMARK  130  A    between atoms: _331  and  _332
REMARK  131  A    between atoms: _334  and  _336
REMARK  132  A    between atoms: _336  and  _337
REMARK  133  A    between atoms: _339  and  _341
REMARK  134  A    between atoms: _341  and  _342
REMARK  135  A    between atoms: _341  and  _344
REMARK  136  A    between atoms: _344  and  _345
REMARK  137  A    between atoms: _350  and  _351
REMARK  138  A    between atoms: _353  and  _355
REMARK  139  A    between atoms: _355  and  _356
REMARK  140  A    between atoms: _355  and  _358
REMARK  141  A    between atoms: _361  and  _363
REMARK  142  A    between atoms: _363  and  _364
REMARK  143  A    between atoms: _366  and  _368
REMARK  144  A    between atoms: _368  and  _369
REMARK  145  A    between atoms: _368  and  _371
REMARK  146  A    between atoms: _371  and  _372
REMARK  147  A    between atoms: _377  and  _379
REMARK  148  A    between atoms: _379  and  _380
REMARK  149  A    between atoms: _383  and  _385
REMARK  150  A    between atoms: _385  and  _386
REMARK  151  A    between atoms: _385  and  _388
REMARK  152  A    between atoms: _388  and  _389
REMARK  153  A    between atoms: _394  and  _396
REMARK  154  A    between atoms: _396  and  _397
REMARK  155  A    between atoms: _396  and  _399
REMARK  156  A    between atoms: _399  and  _400
REMARK  157  A    between atoms: _400  and  _401
REMARK  158  A    between atoms: _401  and  _402
REMARK  159  A    between atoms: _402  and  CA_598
REMARK  160  A    between atoms: _404  and  _406
REMARK  161  A    between atoms: _406  and  _407
REMARK  162  A    between atoms: _406  and  _409
REMARK  163  A    between atoms: _409  and  _410
REMARK  164  A    between atoms: _410  and  _411
REMARK  165  A    between atoms: _414  and  _416
REMARK  166  A    between atoms: _416  and  _417
REMARK  167  A    between atoms: _416  and  _419
REMARK  168  A    between atoms: _419  and  _420
REMARK  169  A    between atoms: _422  and  _424
REMARK  170  A    between atoms: _424  and  _425
REMARK  171  A    between atoms: _428  and  _430
REMARK  172  A    between atoms: _430  and  _431
REMARK  173  A    between atoms: _430  and  _433
REMARK  174  A    between atoms: _433  and  _434
REMARK  175  A    between atoms: _434  and  _435
REMARK  176  A    between atoms: _435  and  _436
REMARK  177  A    between atoms: _445  and  _447
REMARK  178  A    between atoms: _447  and  _448
REMARK  179  A    between atoms: _450  and  _452
REMARK  180  A    between atoms: _452  and  _453
REMARK  181  A    between atoms: _452  and  _455
REMARK  182  A    between atoms: _455  and  _456
REMARK  183  A    between atoms: _459  and  _461
REMARK  184  A    between atoms: _461  and  _462
REMARK  185  A    between atoms: _461  and  _464
REMARK  186  A    between atoms: _464  and  _465
REMARK  187  A    between atoms: _465  and  _466
REMARK  188  A    between atoms: _469  and  _471
REMARK  189  A    between atoms: _471  and  _472
REMARK  190  A    between atoms: _471  and  _474
REMARK  191  A    between atoms: _474  and  _475
REMARK  192  A    between atoms: _480  and  _481
REMARK  193  A    between atoms: _483  and  _485
REMARK  194  A    between atoms: _485  and  _486
REMARK  195  A    between atoms: _485  and  _488
REMARK  196  A    between atoms: _488  and  _489
REMARK  197  A    between atoms: _489  and  _490
REMARK  198  A    between atoms: _493  and  _495
REMARK  199  A    between atoms: _495  and  _496
REMARK  200  A    between atoms: _495  and  _498
REMARK  201  A    between atoms: _498  and  _499
REMARK  202  A    between atoms: _501  and  _503
REMARK  203  A    between atoms: _503  and  _504
REMARK  204  A    between atoms: _503  and  _506
REMARK  205  A    between atoms: _506  and  _507
REMARK  206  A    between atoms: _513  and  _515
REMARK  207  A    between atoms: _515  and  _516
REMARK  208  A    between atoms: _518  and  _520
REMARK  209  A    between atoms: _520  and  _521
REMARK  210  A    between atoms: _523  and  _525
REMARK  211  A    between atoms: _525  and  _526
REMARK  212  A    between atoms: _525  and  _528
REMARK  213  A    between atoms: _528  and  _529
REMARK  214  A    between atoms: _532  and  _534
REMARK  215  A    between atoms: _534  and  _535
REMARK  216  A    between atoms: _534  and  _537
REMARK  217  A    between atoms: _537  and  _538
REMARK  218  A    between atoms: _541  and  _543
REMARK  219  A    between atoms: _543  and  _544
REMARK  220  A    between atoms: _547  and  _549
REMARK  221  A    between atoms: _549  and  _550
REMARK  222  A    between atoms: _549  and  _552
REMARK  223  A    between atoms: _552  and  _553
REMARK  224  A    between atoms: _558  and  _560
REMARK  225  A    between atoms: _560  and  _561
REMARK  226  A    between atoms: _560  and  _563
REMARK  227  A    between atoms: _563  and  _564
REMARK  228  A    between atoms: _569  and  _571
REMARK  229  A    between atoms: _571  and  _572
REMARK  230  A    between atoms: _571  and  _574
REMARK  231  A    between atoms: _574  and  _575
REMARK  232  A    between atoms: _577  and  _579
REMARK  233  A    between atoms: _579  and  _580
REMARK  234  A    between atoms: _579  and  _582
REMARK  235  A    between atoms: _582  and  _583
REMARK  236  A    between atoms: _583  and  _584
REMARK  237  A    between atoms: _589  and  _591
REMARK  238  A    between atoms: _591  and  _592
REMARK  239  A    between atoms: _591  and  _594
REMARK  240  A    between atoms: _594  and  _595
REMARK  241  A    between atoms: _595  and  _596
REMARK                            x       y       z     vdW  Elec       q    Type
REMARK                         _______ _______ _______ _____ _____    ______ ____
ROOT
ATOM      1  CG  TYR A   1      33.950  39.544  28.436  0.00  0.00    -0.020 A 
ATOM      2  CD2 TYR A   1      33.243  40.124  29.489  0.00  0.00    -0.001 A 
ATOM      3  CE2 TYR A   1      33.432  41.460  29.848  0.00  0.00    +0.036 A 
ATOM      4  CZ  TYR A   1      34.337  42.236  29.146  0.00  0.00    +0.134 A 
ATOM      5  CE1 TYR A   1      35.053  41.687  28.088  0.00  0.00    +0.036 A 
ATOM      6  CD1 TYR A   1      34.856  40.345  27.739  0.00  0.00    -0.001 A 
ENDROOT
BRANCH   4   7
ATOM      7  OH  TYR A   1      34.520  43.551  29.522  0.00  0.00    -0.506 OA
ATOM      8  HH  TYR A   1      33.928  43.760  30.288  0.00  0.00    +0.292 HD
ENDBRANCH   4   7
BRANCH   1   9
ATOM      9  CB  TYR A   1      33.764  38.068  28.087  0.00  0.00    +0.051 C 
BRANCH   9  10
ATOM     10  CA  TYR A   1      33.160  37.785  26.699  0.00  0.00    +0.137 C 
BRANCH  10  11
ATOM     11  N   TYR A   1      34.151  38.094  25.678  0.00  0.00    -0.239 NA
ATOM     12  H   TYR A   1      34.234  39.060  25.302  0.00  0.00    +0.142 HD
ENDBRANCH  10  11
BRANCH  10  13
ATOM     13  C   TYR A   1      31.825  38.504  26.595  0.00  0.00    +0.224 C 
ATOM     14  O   TYR A   1      31.654  39.434  25.808  0.00  0.00    -0.287 OA
ENDBRANCH  10  13
ENDBRANCH   9  10
ENDBRANCH   1   9
TORSDOF 5
REMARK  Name = ../refined-set-2016/2zq0/2zq0_pocket.pdb
REMARK  241 active torsions:
REMARK  status: ('A' for Active; 'I' for Inactive)
REMARK    1  A    between atoms: _1  and  _3
REMARK    2  A    between atoms: _3  and  _4
REMARK    3  A    between atoms: _3  and  _6
REMARK    4  A    between atoms: _6  and  _7
REMARK    5  A    between atoms: _10  and  _12
REMARK    6  A    between atoms: _12  and  _13
REMARK    7  A    between atoms: _12  and  _15
REMARK    8  A    between atoms: _15  and  _16
REMARK    9  A    between atoms: _16  and  _17
REMARK   10  A    between atoms: _22  and  _24
REMARK   11  A    between atoms: _24  and  _25
REMARK   12  A    between atoms: _24  and  _27
REMARK   13  A    between atoms: _27  and  _28
REMARK   14  A    between atoms: _28  and  _29
REMARK   15  A    between atoms: _29  and  _31
REMARK   16  A    between atoms: _31  and  CA_598
REMARK   17  A    between atoms: _32  and  _34
REMARK   18  A    between atoms: _34  and  _35
REMARK   19  A    between atoms: _34  and  _37
REMARK   20  A    between atoms: _37  and  _38
REMARK   21  A    between atoms: _42  and  _43
REMARK   22  A    between atoms: _48  and  _50
REMARK   23  A    between atoms: _50  and  _51
REMARK   24  A    between atoms: _50  and  _53
REMARK   25  A    between atoms: _53  and  _54
REMARK   26  A    between atoms: _59  and  _61
REMARK   27  A    between atoms: _61  and  _62
REMARK   28  A    between atoms: _61  and  _64
REMARK   29  A    between atoms: _64  and  _65
REMARK   30  A    between atoms: _67  and  _69
REMARK   31  A    between atoms: _69  and  _70
REMARK   32  A    between atoms: _69  and  _72
REMARK   33  A    between atoms: _72  and  _73
REMARK   34  A    between atoms: _75  and  _77
REMARK   35  A    between atoms: _77  and  _78
REMARK   36  A    between atoms: _77  and  _80
REMARK   37  A    between atoms: _80  and  _81
REMARK   38  A    between atoms: _81  and  _82
REMARK   39  A    between atoms: _87  and  _89
REMARK   40  A    between atoms: _89  and  _90
REMARK   41  A    between atoms: _89  and  _92
REMARK   42  A    between atoms: _92  and  _93
REMARK   43  A    between atoms: _98  and  _99
REMARK   44  A    between atoms: _101  and  _103
REMARK   45  A    between atoms: _103  and  _104
REMARK   46  A    between atoms: _103  and  _106
REMARK   47  A    between atoms: _109  and  _111
REMARK   48  A    between atoms: _111  and  _112
REMARK   49  A    between atoms: _111  and  _114
REMARK   50  A    between atoms: _114  and  _115
REMARK   51  A    between atoms: _125  and  _127
REMARK   52  A    between atoms: _127  and  _128
REMARK   53  A    between atoms: _127  and  _130
REMARK   54  A    between atoms: _130  and  _131
REMARK   55  A    between atoms: _141  and  _143
REMARK   56  A    between atoms: _143  and  _144
REMARK   57  A    between atoms: _143  and  _146
REMARK   58  A    between atoms: _146  and  _147
REMARK   59  A    between atoms: _147  and  _148
REMARK   60  A    between atoms: _150  and  _152
REMARK   61  A    between atoms: _152  and  _153
REMARK   62  A    between atoms: _152  and  _155
REMARK   63  A    between atoms: _155  and  _156
REMARK   64  A    between atoms: _159  and  _161
REMARK   65  A    between atoms: _161  and  _162
REMARK   66  A    between atoms: _161  and  _164
REMARK   67  A    between atoms: _164  and  _165
REMARK   68  A    between atoms: _168  and  _170
REMARK   69  A    between atoms: _170  and  _171
REMARK   70  A    between atoms: _170  and  _173
REMARK   71  A    between atoms: _173  and  _174
REMARK   72  A    between atoms: _184  and  _186
REMARK   73  A    between atoms: _186  and  _187
REMARK   74  A    between atoms: _186  and  _189
REMARK   75  A    between atoms: _189  and  _190
REMARK   76  A    between atoms: _193  and  _195
REMARK   77  A    between atoms: _195  and  _196
REMARK   78  A    between atoms: _195  and  _198
REMARK   79  A    between atoms: _198  and  _199
REMARK   80  A    between atoms: _199  and  _200
REMARK   81  A    between atoms: _203  and  _205
REMARK   82  A    between atoms: _205  and  _206
REMARK   83  A    between atoms: _208  and  _210
REMARK   84  A    between atoms: _210  and  _211
REMARK   85  A    between atoms: _210  and  _213
REMARK   86  A    between atoms: _213  and  _214
REMARK   87  A    between atoms: _224  and  _226
REMARK   88  A    between atoms: _226  and  _227
REMARK   89  A    between atoms: _226  and  _229
REMARK   90  A    between atoms: _229  and  _230
REMARK   91  A    between atoms: _240  and  _242
REMARK   92  A    between atoms: _242  and  _243
REMARK   93  A    between atoms: _242  and  _245
REMARK   94  A    between atoms: _245  and  _246
REMARK   95  A    between atoms: _252  and  _254
REMARK   96  A    between atoms: _254  and  _255
REMARK   97  A    between atoms: _254  and  _257
REMARK   98  A    between atoms: _257  and  _258
REMARK   99  A    between atoms: _264  and  _266
REMARK  100  A    between atoms: _266  and  _267
REMARK  101  A    between atoms: _266  and  _269
REMARK  102  A    between atoms: _269  and  _270
REMARK  103  A    between atoms: _275  and  _277
REMARK  104  A    between atoms: _277  and  _278
REMARK  105  A    between atoms: _277  and  _280
REMARK  106  A    between atoms: _280  and  _281
REMARK  107  A    between atoms: _286  and  _288
REMARK  108  A    between atoms: _288  and  _289
REMARK  109  A    between atoms: _288  and  _291
REMARK  110  A    between atoms: _291  and  _292
REMARK  111  A    between atoms: _292  and  _293
REMARK  112  A    between atoms: _296  and  _298
REMARK  113  A    between atoms: _298  and  _299
REMARK  114  A    between atoms: _298  and  _301
REMARK  115  A    between atoms: _301  and  _302
REMARK  116  A    between atoms: _305  and  _307
REMARK  117  A    between atoms: _307  and  _308
REMARK  118  A    between atoms: _307  and  _310
REMARK  119  A    between atoms: _310  and  _311
REMARK  120  A    between atoms: _313  and  _315
REMARK  121  A    between atoms: _315  and  _316
REMARK  122  A    between atoms: _315  and  _318
REMARK  123  A    between atoms: _318  and  _319
REMARK  124  A    between atoms: _319  and  _320
REMARK  125  A    between atoms: _320  and  _321
REMARK  126  A    between atoms: _321  and  _322
REMARK  127  A    between atoms: _326  and  _328
REMARK  128  A    between atoms: _328  and  _329
REMARK  129  A    between atoms: _328  and  _331
REMARK  130  A    between atoms: _331  and  _332
REMARK  131  A    between atoms: _334  and  _336
REMARK  132  A    between atoms: _336  and  _337
REMARK  133  A    between atoms: _339  and  _341
REMARK  134  A    between atoms: _341  and  _342
REMARK  135  A    between atoms: _341  and  _344
REMARK  136  A    between atoms: _344  and  _345
REMARK  137  A    between atoms: _350  and  _351
REMARK  138  A    between atoms: _353  and  _355
REMARK  139  A    between atoms: _355  and  _356
REMARK  140  A    between atoms: _355  and  _358
REMARK  141  A    between atoms: _361  and  _363
REMARK  142  A    between atoms: _363  and  _364
REMARK  143  A    between atoms: _366  and  _368
REMARK  144  A    between atoms: _368  and  _369
REMARK  145  A    between atoms: _368  and  _371
REMARK  146  A    between atoms: _371  and  _372
REMARK  147  A    between atoms: _377  and  _379
REMARK  148  A    between atoms: _379  and  _380
REMARK  149  A    between atoms: _383  and  _385
REMARK  150  A    between atoms: _385  and  _386
REMARK  151  A    between atoms: _385  and  _388
REMARK  152  A    between atoms: _388  and  _389
REMARK  153  A    between atoms: _394  and  _396
REMARK  154  A    between atoms: _396  and  _397
REMARK  155  A    between atoms: _396  and  _399
REMARK  156  A    between atoms: _399  and  _400
REMARK  157  A    between atoms: _400  and  _401
REMARK  158  A    between atoms: _401  and  _402
REMARK  159  A    between atoms: _402  and  CA_598
REMARK  160  A    between atoms: _404  and  _406
REMARK  161  A    between atoms: _406  and  _407
REMARK  162  A    between atoms: _406  and  _409
REMARK  163  A    between atoms: _409  and  _410
REMARK  164  A    between atoms: _410  and  _411
REMARK  165  A    between atoms: _414  and  _416
REMARK  166  A    between atoms: _416  and  _417
REMARK  167  A    between atoms: _416  and  _419
REMARK  168  A    between atoms: _419  and  _420
REMARK  169  A    between atoms: _422  and  _424
REMARK  170  A    between atoms: _424  and  _425
REMARK  171  A    between atoms: _428  and  _430
REMARK  172  A    between atoms: _430  and  _431
REMARK  173  A    between atoms: _430  and  _433
REMARK  174  A    between atoms: _433  and  _434
REMARK  175  A    between atoms: _434  and  _435
REMARK  176  A    between atoms: _435  and  _436
REMARK  177  A    between atoms: _445  and  _447
REMARK  178  A    between atoms: _447  and  _448
REMARK  179  A    between atoms: _450  and  _452
REMARK  180  A    between atoms: _452  and  _453
REMARK  181  A    between atoms: _452  and  _455
REMARK  182  A    between atoms: _455  and  _456
REMARK  183  A    between atoms: _459  and  _461
REMARK  184  A    between atoms: _461  and  _462
REMARK  185  A    between atoms: _461  and  _464
REMARK  186  A    between atoms: _464  and  _465
REMARK  187  A    between atoms: _465  and  _466
REMARK  188  A    between atoms: _469  and  _471
REMARK  189  A    between atoms: _471  and  _472
REMARK  190  A    between atoms: _471  and  _474
REMARK  191  A    between atoms: _474  and  _475
REMARK  192  A    between atoms: _480  and  _481
REMARK  193  A    between atoms: _483  and  _485
REMARK  194  A    between atoms: _485  and  _486
REMARK  195  A    between atoms: _485  and  _488
REMARK  196  A    between atoms: _488  and  _489
REMARK  197  A    between atoms: _489  and  _490
REMARK  198  A    between atoms: _493  and  _495
REMARK  199  A    between atoms: _495  and  _496
REMARK  200  A    between atoms: _495  and  _498
REMARK  201  A    between atoms: _498  and  _499
REMARK  202  A    between atoms: _501  and  _503
REMARK  203  A    between atoms: _503  and  _504
REMARK  204  A    between atoms: _503  and  _506
REMARK  205  A    between atoms: _506  and  _507
REMARK  206  A    between atoms: _513  and  _515
REMARK  207  A    between atoms: _515  and  _516
REMARK  208  A    between atoms: _518  and  _520
REMARK  209  A    between atoms: _520  and  _521
REMARK  210  A    between atoms: _523  and  _525
REMARK  211  A    between atoms: _525  and  _526
REMARK  212  A    between atoms: _525  and  _528
REMARK  213  A    between atoms: _528  and  _529
REMARK  214  A    between atoms: _532  and  _534
REMARK  215  A    between atoms: _534  and  _535
REMARK  216  A    between atoms: _534  and  _537
REMARK  217  A    between atoms: _537  and  _538
REMARK  218  A    between atoms: _541  and  _543
REMARK  219  A    between atoms: _543  and  _544
REMARK  220  A    between atoms: _547  and  _549
REMARK  221  A    between atoms: _549  and  _550
REMARK  222  A    between atoms: _549  and  _552
REMARK  223  A    between atoms: _552  and  _553
REMARK  224  A    between atoms: _558  and  _560
REMARK  225  A    between atoms: _560  and  _561
REMARK  226  A    between atoms: _560  and  _563
REMARK  227  A    between atoms: _563  and  _564
REMARK  228  A    between atoms: _569  and  _571
REMARK  229  A    between atoms: _571  and  _572
REMARK  230  A    between atoms: _571  and  _574
REMARK  231  A    between atoms: _574  and  _575
REMARK  232  A    between atoms: _577  and  _579
REMARK  233  A    between atoms: _579  and  _580
REMARK  234  A    between atoms: _579  and  _582
REMARK  235  A    between atoms: _582  and  _583
REMARK  236  A    between atoms: _583  and  _584
REMARK  237  A    between atoms: _589  and  _591
REMARK  238  A    between atoms: _591  and  _592
REMARK  239  A    between atoms: _591  and  _594
REMARK  240  A    between atoms: _594  and  _595
REMARK  241  A    between atoms: _595  and  _596
REMARK                            x       y       z     vdW  Elec       q    Type
REMARK                         _______ _______ _______ _____ _____    ______ ____
ROOT
ATOM      1  CA  TRP A   2      26.141  43.805  33.160  0.00  0.00    +0.153 C 
ENDROOT
BRANCH   1   4
ATOM      2  C   VAL A   1      25.958  41.473  33.798  0.00  0.00    +0.238 C 
ATOM      3  O   VAL A   1      26.695  41.620  34.779  0.00  0.00    -0.274 OA
ATOM      4  N   TRP A   2      25.603  42.467  32.990  0.00  0.00    -0.297 N 
ATOM      5  H   TRP A   2      24.927  42.283  32.221  0.00  0.00    +0.150 HD
BRANCH   2   6
ATOM      6  CA  VAL A   1      25.414  40.106  33.426  0.00  0.00    +0.145 C 
BRANCH   6   7
ATOM      7  CB  VAL A   1      25.116  39.267  34.678  0.00  0.00    +0.025 C 
ATOM      8  CG2 VAL A   1      23.939  39.857  35.434  0.00  0.00    +0.002 C 
ATOM      9  CG1 VAL A   1      24.817  37.827  34.263  0.00  0.00    +0.002 C 
ENDBRANCH   6   7
BRANCH   6  10
ATOM     10  N   VAL A   1      26.595  39.615  32.740  0.00  0.00    -0.238 NA
ATOM     11  H   VAL A   1      27.257  38.997  33.251  0.00  0.00    +0.142 HD
ENDBRANCH   6  10
ENDBRANCH   2   6
ENDBRANCH   1   4
BRANCH   1  12
ATOM     12  C   TRP A   2      25.234  44.925  32.648  0.00  0.00    +0.241 C 
ATOM     13  O   TRP A   2      24.856  45.824  33.406  0.00  0.00    -0.273 OA
ATOM     14  N   TRP A   3      24.899  44.873  31.359  0.00  0.00    -0.298 N 
ATOM     15  H   TRP A   3      25.250  44.084  30.780  0.00  0.00    +0.150 HD
BRANCH  14  16
ATOM     16  CA  TRP A   3      24.053  45.890  30.732  0.00  0.00    +0.141 C 
BRANCH  16  17
ATOM     17  C   TRP A   3      22.740  46.069  31.503  0.00  0.00    +0.227 C 
ATOM     18  O   TRP A   3      22.174  47.160  31.527  0.00  0.00    -0.286 OA
ENDBRANCH  16  17
BRANCH  16  19
ATOM     19  CB  TRP A   3      23.790  45.504  29.269  0.00  0.00    +0.056 C 
BRANCH  19  20
ATOM     20  CG  TRP A   3      23.249  46.605  28.373  0.00  0.00    -0.002 A 
ATOM     21  CD2 TRP A   3      23.867  47.869  28.071  0.00  0.00    +0.013 A 
ATOM     22  CE3 TRP A   3      25.033  48.514  28.509  0.00  0.00    +0.001 A 
ATOM     23  CZ3 TRP A   3      25.339  49.772  27.985  0.00  0.00    +0.000 A 
ATOM     24  CH2 TRP A   3      24.501  50.388  27.037  0.00  0.00    +0.001 A 
ATOM     25  CZ2 TRP A   3      23.353  49.778  26.592  0.00  0.00    +0.017 A 
ATOM     26  CE2 TRP A   3      23.046  48.517  27.117  0.00  0.00    +0.056 A 
ATOM     27  NE1 TRP A   3      21.985  47.690  26.859  0.00  0.00    -0.352 N 
ATOM     28  HE1 TRP A   3      21.208  47.892  26.197  0.00  0.00    +0.166 HD
ATOM     29  CD1 TRP A   3      22.112  46.550  27.615  0.00  0.00    +0.068 A 
ENDBRANCH  19  20
ENDBRANCH  16  19
ENDBRANCH  14  16
ENDBRANCH   1  12
BRANCH   1  30
ATOM     30  CB  TRP A   2      27.486  43.846  32.431  0.00  0.00    +0.057 C 
BRANCH  30  31
ATOM     31  CG  TRP A   2      28.153  45.163  32.463  0.00  0.00    -0.002 A 
ATOM     32  CD1 TRP A   2      28.719  45.765  33.547  0.00  0.00    +0.068 A 
ATOM     33  NE1 TRP A   2      29.211  46.997  33.196  0.00  0.00    -0.352 N 
ATOM     34  HE1 TRP A   2      29.691  47.660  33.838  0.00  0.00    +0.166 HD
ATOM     35  CE2 TRP A   2      28.969  47.213  31.865  0.00  0.00    +0.056 A 
ATOM     36  CZ2 TRP A   2      29.277  48.312  31.057  0.00  0.00    +0.017 A 
ATOM     37  CH2 TRP A   2      28.907  48.254  29.735  0.00  0.00    +0.001 A 
ATOM     38  CZ3 TRP A   2      28.242  47.132  29.209  0.00  0.00    +0.000 A 
ATOM     39  CE3 TRP A   2      27.936  46.036  30.016  0.00  0.00    +0.001 A 
ATOM     40  CD2 TRP A   2      28.302  46.073  31.369  0.00  0.00    +0.013 A 
ENDBRANCH  30  31
ENDBRANCH   1  30
TORSDOF 11
REMARK  Name = ../refined-set-2016/2zq0/2zq0_pocket.pdb
REMARK  241 active torsions:
REMARK  status: ('A' for Active; 'I' for Inactive)
REMARK    1  A    between atoms: _1  and  _3
REMARK    2  A    between atoms: _3  and  _4
REMARK    3  A    between atoms: _3  and  _6
REMARK    4  A    between atoms: _6  and  _7
REMARK    5  A    between atoms: _10  and  _12
REMARK    6  A    between atoms: _12  and  _13
REMARK    7  A    between atoms: _12  and  _15
REMARK    8  A    between atoms: _15  and  _16
REMARK    9  A    between atoms: _16  and  _17
REMARK   10  A    between atoms: _22  and  _24
REMARK   11  A    between atoms: _24  and  _25
REMARK   12  A    between atoms: _24  and  _27
REMARK   13  A    between atoms: _27  and  _28
REMARK   14  A    between atoms: _28  and  _29
REMARK   15  A    between atoms: _29  and  _31
REMARK   16  A    between atoms: _31  and  CA_598
REMARK   17  A    between atoms: _32  and  _34
REMARK   18  A    between atoms: _34  and  _35
REMARK   19  A    between atoms: _34  and  _37
REMARK   20  A    between atoms: _37  and  _38
REMARK   21  A    between atoms: _42  and  _43
REMARK   22  A    between atoms: _48  and  _50
REMARK   23  A    between atoms: _50  and  _51
REMARK   24  A    between atoms: _50  and  _53
REMARK   25  A    between atoms: _53  and  _54
REMARK   26  A    between atoms: _59  and  _61
REMARK   27  A    between atoms: _61  and  _62
REMARK   28  A    between atoms: _61  and  _64
REMARK   29  A    between atoms: _64  and  _65
REMARK   30  A    between atoms: _67  and  _69
REMARK   31  A    between atoms: _69  and  _70
REMARK   32  A    between atoms: _69  and  _72
REMARK   33  A    between atoms: _72  and  _73
REMARK   34  A    between atoms: _75  and  _77
REMARK   35  A    between atoms: _77  and  _78
REMARK   36  A    between atoms: _77  and  _80
REMARK   37  A    between atoms: _80  and  _81
REMARK   38  A    between atoms: _81  and  _82
REMARK   39  A    between atoms: _87  and  _89
REMARK   40  A    between atoms: _89  and  _90
REMARK   41  A    between atoms: _89  and  _92
REMARK   42  A    between atoms: _92  and  _93
REMARK   43  A    between atoms: _98  and  _99
REMARK   44  A    between atoms: _101  and  _103
REMARK   45  A    between atoms: _103  and  _104
REMARK   46  A    between atoms: _103  and  _106
REMARK   47  A    between atoms: _109  and  _111
REMARK   48  A    between atoms: _111  and  _112
REMARK   49  A    between atoms: _111  and  _114
REMARK   50  A    between atoms: _114  and  _115
REMARK   51  A    between atoms: _125  and  _127
REMARK   52  A    between atoms: _127  and  _128
REMARK   53  A    between atoms: _127  and  _130
REMARK   54  A    between atoms: _130  and  _131
REMARK   55  A    between atoms: _141  and  _143
REMARK   56  A    between atoms: _143  and  _144
REMARK   57  A    between atoms: _143  and  _146
REMARK   58  A    between atoms: _146  and  _147
REMARK   59  A    between atoms: _147  and  _148
REMARK   60  A    between atoms: _150  and  _152
REMARK   61  A    between atoms: _152  and  _153
REMARK   62  A    between atoms: _152  and  _155
REMARK   63  A    between atoms: _155  and  _156
REMARK   64  A    between atoms: _159  and  _161
REMARK   65  A    between atoms: _161  and  _162
REMARK   66  A    between atoms: _161  and  _164
REMARK   67  A    between atoms: _164  and  _165
REMARK   68  A    between atoms: _168  and  _170
REMARK   69  A    between atoms: _170  and  _171
REMARK   70  A    between atoms: _170  and  _173
REMARK   71  A    between atoms: _173  and  _174
REMARK   72  A    between atoms: _184  and  _186
REMARK   73  A    between atoms: _186  and  _187
REMARK   74  A    between atoms: _186  and  _189
REMARK   75  A    between atoms: _189  and  _190
REMARK   76  A    between atoms: _193  and  _195
REMARK   77  A    between atoms: _195  and  _196
REMARK   78  A    between atoms: _195  and  _198
REMARK   79  A    between atoms: _198  and  _199
REMARK   80  A    between atoms: _199  and  _200
REMARK   81  A    between atoms: _203  and  _205
REMARK   82  A    between atoms: _205  and  _206
REMARK   83  A    between atoms: _208  and  _210
REMARK   84  A    between atoms: _210  and  _211
REMARK   85  A    between atoms: _210  and  _213
REMARK   86  A    between atoms: _213  and  _214
REMARK   87  A    between atoms: _224  and  _226
REMARK   88  A    between atoms: _226  and  _227
REMARK   89  A    between atoms: _226  and  _229
REMARK   90  A    between atoms: _229  and  _230
REMARK   91  A    between atoms: _240  and  _242
REMARK   92  A    between atoms: _242  and  _243
REMARK   93  A    between atoms: _242  and  _245
REMARK   94  A    between atoms: _245  and  _246
REMARK   95  A    between atoms: _252  and  _254
REMARK   96  A    between atoms: _254  and  _255
REMARK   97  A    between atoms: _254  and  _257
REMARK   98  A    between atoms: _257  and  _258
REMARK   99  A    between atoms: _264  and  _266
REMARK  100  A    between atoms: _266  and  _267
REMARK  101  A    between atoms: _266  and  _269
REMARK  102  A    between atoms: _269  and  _270
REMARK  103  A    between atoms: _275  and  _277
REMARK  104  A    between atoms: _277  and  _278
REMARK  105  A    between atoms: _277  and  _280
REMARK  106  A    between atoms: _280  and  _281
REMARK  107  A    between atoms: _286  and  _288
REMARK  108  A    between atoms: _288  and  _289
REMARK  109  A    between atoms: _288  and  _291
REMARK  110  A    between atoms: _291  and  _292
REMARK  111  A    between atoms: _292  and  _293
REMARK  112  A    between atoms: _296  and  _298
REMARK  113  A    between atoms: _298  and  _299
REMARK  114  A    between atoms: _298  and  _301
REMARK  115  A    between atoms: _301  and  _302
REMARK  116  A    between atoms: _305  and  _307
REMARK  117  A    between atoms: _307  and  _308
REMARK  118  A    between atoms: _307  and  _310
REMARK  119  A    between atoms: _310  and  _311
REMARK  120  A    between atoms: _313  and  _315
REMARK  121  A    between atoms: _315  and  _316
REMARK  122  A    between atoms: _315  and  _318
REMARK  123  A    between atoms: _318  and  _319
REMARK  124  A    between atoms: _319  and  _320
REMARK  125  A    between atoms: _320  and  _321
REMARK  126  A    between atoms: _321  and  _322
REMARK  127  A    between atoms: _326  and  _328
REMARK  128  A    between atoms: _328  and  _329
REMARK  129  A    between atoms: _328  and  _331
REMARK  130  A    between atoms: _331  and  _332
REMARK  131  A    between atoms: _334  and  _336
REMARK  132  A    between atoms: _336  and  _337
REMARK  133  A    between atoms: _339  and  _341
REMARK  134  A    between atoms: _341  and  _342
REMARK  135  A    between atoms: _341  and  _344
REMARK  136  A    between atoms: _344  and  _345
REMARK  137  A    between atoms: _350  and  _351
REMARK  138  A    between atoms: _353  and  _355
REMARK  139  A    between atoms: _355  and  _356
REMARK  140  A    between atoms: _355  and  _358
REMARK  141  A    between atoms: _361  and  _363
REMARK  142  A    between atoms: _363  and  _364
REMARK  143  A    between atoms: _366  and  _368
REMARK  144  A    between atoms: _368  and  _369
REMARK  145  A    between atoms: _368  and  _371
REMARK  146  A    between atoms: _371  and  _372
REMARK  147  A    between atoms: _377  and  _379
REMARK  148  A    between atoms: _379  and  _380
REMARK  149  A    between atoms: _383  and  _385
REMARK  150  A    between atoms: _385  and  _386
REMARK  151  A    between atoms: _385  and  _388
REMARK  152  A    between atoms: _388  and  _389
REMARK  153  A    between atoms: _394  and  _396
REMARK  154  A    between atoms: _396  and  _397
REMARK  155  A    between atoms: _396  and  _399
REMARK  156  A    between atoms: _399  and  _400
REMARK  157  A    between atoms: _400  and  _401
REMARK  158  A    between atoms: _401  and  _402
REMARK  159  A    between atoms: _402  and  CA_598
REMARK  160  A    between atoms: _404  and  _406
REMARK  161  A    between atoms: _406  and  _407
REMARK  162  A    between atoms: _406  and  _409
REMARK  163  A    between atoms: _409  and  _410
REMARK  164  A    between atoms: _410  and  _411
REMARK  165  A    between atoms: _414  and  _416
REMARK  166  A    between atoms: _416  and  _417
REMARK  167  A    between atoms: _416  and  _419
REMARK  168  A    between atoms: _419  and  _420
REMARK  169  A    between atoms: _422  and  _424
REMARK  170  A    between atoms: _424  and  _425
REMARK  171  A    between atoms: _428  and  _430
REMARK  172  A    between atoms: _430  and  _431
REMARK  173  A    between atoms: _430  and  _433
REMARK  174  A    between atoms: _433  and  _434
REMARK  175  A    between atoms: _434  and  _435
REMARK  176  A    between atoms: _435  and  _436
REMARK  177  A    between atoms: _445  and  _447
REMARK  178  A    between atoms: _447  and  _448
REMARK  179  A    between atoms: _450  and  _452
REMARK  180  A    between atoms: _452  and  _453
REMARK  181  A    between atoms: _452  and  _455
REMARK  182  A    between atoms: _455  and  _456
REMARK  183  A    between atoms: _459  and  _461
REMARK  184  A    between atoms: _461  and  _462
REMARK  185  A    between atoms: _461  and  _464
REMARK  186  A    between atoms: _464  and  _465
REMARK  187  A    between atoms: _465  and  _466
REMARK  188  A    between atoms: _469  and  _471
REMARK  189  A    between atoms: _471  and  _472
REMARK  190  A    between atoms: _471  and  _474
REMARK  191  A    between atoms: _474  and  _475
REMARK  192  A    between atoms: _480  and  _481
REMARK  193  A    between atoms: _483  and  _485
REMARK  194  A    between atoms: _485  and  _486
REMARK  195  A    between atoms: _485  and  _488
REMARK  196  A    between atoms: _488  and  _489
REMARK  197  A    between atoms: _489  and  _490
REMARK  198  A    between atoms: _493  and  _495
REMARK  199  A    between atoms: _495  and  _496
REMARK  200  A    between atoms: _495  and  _498
REMARK  201  A    between atoms: _498  and  _499
REMARK  202  A    between atoms: _501  and  _503
REMARK  203  A    between atoms: _503  and  _504
REMARK  204  A    between atoms: _503  and  _506
REMARK  205  A    between atoms: _506  and  _507
REMARK  206  A    between atoms: _513  and  _515
REMARK  207  A    between atoms: _515  and  _516
REMARK  208  A    between atoms: _518  and  _520
REMARK  209  A    between atoms: _520  and  _521
REMARK  210  A    between atoms: _523  and  _525
REMARK  211  A    between atoms: _525  and  _526
REMARK  212  A    between atoms: _525  and  _528
REMARK  213  A    between atoms: _528  and  _529
REMARK  214  A    between atoms: _532  and  _534
REMARK  215  A    between atoms: _534  and  _535
REMARK  216  A    between atoms: _534  and  _537
REMARK  217  A    between atoms: _537  and  _538
REMARK  218  A    between atoms: _541  and  _543
REMARK  219  A    between atoms: _543  and  _544
REMARK  220  A    between atoms: _547  and  _549
REMARK  221  A    between atoms: _549  and  _550
REMARK  222  A    between atoms: _549  and  _552
REMARK  223  A    between atoms: _552  and  _553
REMARK  224  A    between atoms: _558  and  _560
REMARK  225  A    between atoms: _560  and  _561
REMARK  226  A    between atoms: _560  and  _563
REMARK  227  A    between atoms: _563  and  _564
REMARK  228  A    between atoms: _569  and  _571
REMARK  229  A    between atoms: _571  and  _572
REMARK  230  A    between atoms: _571  and  _574
REMARK  231  A    between atoms: _574  and  _575
REMARK  232  A    between atoms: _577  and  _579
REMARK  233  A    between atoms: _579  and  _580
REMARK  234  A    between atoms: _579  and  _582
REMARK  235  A    between atoms: _582  and  _583
REMARK  236  A    between atoms: _583  and  _584
REMARK  237  A    between atoms: _589  and  _591
REMARK  238  A    between atoms: _591  and  _592
REMARK  239  A    between atoms: _591  and  _594
REMARK  240  A    between atoms: _594  and  _595
REMARK  241  A    between atoms: _595  and  _596
REMARK                            x       y       z     vdW  Elec       q    Type
REMARK                         _______ _______ _______ _____ _____    ______ ____
ROOT
ATOM      1  CA  ILE A   2      24.003  49.862  33.529  0.00  0.00    +0.148 C 
ENDROOT
BRANCH   1   4
ATOM      2  C   MET A   1      22.796  48.578  35.190  0.00  0.00    +0.238 C 
ATOM      3  O   MET A   1      22.352  49.606  35.705  0.00  0.00    -0.274 OA
ATOM      4  N   ILE A   2      23.598  48.598  34.134  0.00  0.00    -0.297 N 
ATOM      5  H   ILE A   2      23.942  47.702  33.733  0.00  0.00    +0.150 HD
BRANCH   2   6
ATOM      6  CA  MET A   1      22.431  47.207  35.750  0.00  0.00    +0.146 C 
BRANCH   6   7
ATOM      7  N   MET A   1      22.221  46.198  34.722  0.00  0.00    -0.238 NA
ATOM      8  H   MET A   1      22.931  45.449  34.593  0.00  0.00    +0.142 HD
ENDBRANCH   6   7
BRANCH   6   9
ATOM      9  CB  MET A   1      23.514  46.741  36.731  0.00  0.00    +0.038 C 
BRANCH   9  10
ATOM     10  CG  MET A   1      23.178  45.458  37.490  0.00  0.00    +0.060 C 
BRANCH  10  11
ATOM     11  SD  MET A   1      23.507  43.928  36.580  0.00  0.00    -0.139 S 
ATOM     12  CE  MET A   1      25.292  43.809  36.819  0.00  0.00    +0.069 C 
ENDBRANCH  10  11
ENDBRANCH   9  10
ENDBRANCH   6   9
ENDBRANCH   2   6
ENDBRANCH   1   4
BRANCH   1  13
ATOM     13  C   ILE A   2      22.803  50.650  33.004  0.00  0.00    +0.241 C 
ATOM     14  O   ILE A   2      22.766  51.878  33.114  0.00  0.00    -0.273 OA
ATOM     15  N   THR A   3      21.821  49.947  32.444  0.00  0.00    -0.296 N 
ATOM     16  H   THR A   3      21.903  48.912  32.390  0.00  0.00    +0.150 HD
BRANCH  15  17
ATOM     17  CA  THR A   3      20.629  50.600  31.903  0.00  0.00    +0.164 C 
BRANCH  17  18
ATOM     18  C   THR A   3      19.569  50.868  32.968  0.00  0.00    +0.229 C 
ATOM     19  O   THR A   3      18.682  51.699  32.772  0.00  0.00    -0.286 OA
ENDBRANCH  17  18
BRANCH  17  20
ATOM     20  CB  THR A   3      19.981  49.757  30.785  0.00  0.00    +0.136 C 
ATOM     21  CG2 THR A   3      20.938  49.592  29.614  0.00  0.00    +0.034 C 
BRANCH  20  22
ATOM     22  OG1 THR A   3      19.626  48.468  31.301  0.00  0.00    -0.382 OA
ATOM     23  HG1 THR A   3      20.440  48.010  31.630  0.00  0.00    +0.210 HD
ENDBRANCH  20  22
ENDBRANCH  17  20
ENDBRANCH  15  17
ENDBRANCH   1  13
BRANCH   1  24
ATOM     24  CB  ILE A   2      25.013  49.629  32.378  0.00  0.00    +0.027 C 
ATOM     25  CG2 ILE A   2      25.275  50.932  31.630  0.00  0.00    +0.002 C 
BRANCH  24  26
ATOM     26  CG1 ILE A   2      26.326  49.076  32.946  0.00  0.00    +0.002 C 
ATOM     27  CD1 ILE A   2      27.066  50.041  33.866  0.00  0.00    +0.000 C 
ENDBRANCH  24  26
ENDBRANCH   1  24
TORSDOF 13
REMARK  Name = ../refined-set-2016/2zq0/2zq0_pocket.pdb
REMARK  241 active torsions:
REMARK  status: ('A' for Active; 'I' for Inactive)
REMARK    1  A    between atoms: _1  and  _3
REMARK    2  A    between atoms: _3  and  _4
REMARK    3  A    between atoms: _3  and  _6
REMARK    4  A    between atoms: _6  and  _7
REMARK    5  A    between atoms: _10  and  _12
REMARK    6  A    between atoms: _12  and  _13
REMARK    7  A    between atoms: _12  and  _15
REMARK    8  A    between atoms: _15  and  _16
REMARK    9  A    between atoms: _16  and  _17
REMARK   10  A    between atoms: _22  and  _24
REMARK   11  A    between atoms: _24  and  _25
REMARK   12  A    between atoms: _24  and  _27
REMARK   13  A    between atoms: _27  and  _28
REMARK   14  A    between atoms: _28  and  _29
REMARK   15  A    between atoms: _29  and  _31
REMARK   16  A    between atoms: _31  and  CA_598
REMARK   17  A    between atoms: _32  and  _34
REMARK   18  A    between atoms: _34  and  _35
REMARK   19  A    between atoms: _34  and  _37
REMARK   20  A    between atoms: _37  and  _38
REMARK   21  A    between atoms: _42  and  _43
REMARK   22  A    between atoms: _48  and  _50
REMARK   23  A    between atoms: _50  and  _51
REMARK   24  A    between atoms: _50  and  _53
REMARK   25  A    between atoms: _53  and  _54
REMARK   26  A    between atoms: _59  and  _61
REMARK   27  A    between atoms: _61  and  _62
REMARK   28  A    between atoms: _61  and  _64
REMARK   29  A    between atoms: _64  and  _65
REMARK   30  A    between atoms: _67  and  _69
REMARK   31  A    between atoms: _69  and  _70
REMARK   32  A    between atoms: _69  and  _72
REMARK   33  A    between atoms: _72  and  _73
REMARK   34  A    between atoms: _75  and  _77
REMARK   35  A    between atoms: _77  and  _78
REMARK   36  A    between atoms: _77  and  _80
REMARK   37  A    between atoms: _80  and  _81
REMARK   38  A    between atoms: _81  and  _82
REMARK   39  A    between atoms: _87  and  _89
REMARK   40  A    between atoms: _89  and  _90
REMARK   41  A    between atoms: _89  and  _92
REMARK   42  A    between atoms: _92  and  _93
REMARK   43  A    between atoms: _98  and  _99
REMARK   44  A    between atoms: _101  and  _103
REMARK   45  A    between atoms: _103  and  _104
REMARK   46  A    between atoms: _103  and  _106
REMARK   47  A    between atoms: _109  and  _111
REMARK   48  A    between atoms: _111  and  _112
REMARK   49  A    between atoms: _111  and  _114
REMARK   50  A    between atoms: _114  and  _115
REMARK   51  A    between atoms: _125  and  _127
REMARK   52  A    between atoms: _127  and  _128
REMARK   53  A    between atoms: _127  and  _130
REMARK   54  A    between atoms: _130  and  _131
REMARK   55  A    between atoms: _141  and  _143
REMARK   56  A    between atoms: _143  and  _144
REMARK   57  A    between atoms: _143  and  _146
REMARK   58  A    between atoms: _146  and  _147
REMARK   59  A    between atoms: _147  and  _148
REMARK   60  A    between atoms: _150  and  _152
REMARK   61  A    between atoms: _152  and  _153
REMARK   62  A    between atoms: _152  and  _155
REMARK   63  A    between atoms: _155  and  _156
REMARK   64  A    between atoms: _159  and  _161
REMARK   65  A    between atoms: _161  and  _162
REMARK   66  A    between atoms: _161  and  _164
REMARK   67  A    between atoms: _164  and  _165
REMARK   68  A    between atoms: _168  and  _170
REMARK   69  A    between atoms: _170  and  _171
REMARK   70  A    between atoms: _170  and  _173
REMARK   71  A    between atoms: _173  and  _174
REMARK   72  A    between atoms: _184  and  _186
REMARK   73  A    between atoms: _186  and  _187
REMARK   74  A    between atoms: _186  and  _189
REMARK   75  A    between atoms: _189  and  _190
REMARK   76  A    between atoms: _193  and  _195
REMARK   77  A    between atoms: _195  and  _196
REMARK   78  A    between atoms: _195  and  _198
REMARK   79  A    between atoms: _198  and  _199
REMARK   80  A    between atoms: _199  and  _200
REMARK   81  A    between atoms: _203  and  _205
REMARK   82  A    between atoms: _205  and  _206
REMARK   83  A    between atoms: _208  and  _210
REMARK   84  A    between atoms: _210  and  _211
REMARK   85  A    between atoms: _210  and  _213
REMARK   86  A    between atoms: _213  and  _214
REMARK   87  A    between atoms: _224  and  _226
REMARK   88  A    between atoms: _226  and  _227
REMARK   89  A    between atoms: _226  and  _229
REMARK   90  A    between atoms: _229  and  _230
REMARK   91  A    between atoms: _240  and  _242
REMARK   92  A    between atoms: _242  and  _243
REMARK   93  A    between atoms: _242  and  _245
REMARK   94  A    between atoms: _245  and  _246
REMARK   95  A    between atoms: _252  and  _254
REMARK   96  A    between atoms: _254  and  _255
REMARK   97  A    between atoms: _254  and  _257
REMARK   98  A    between atoms: _257  and  _258
REMARK   99  A    between atoms: _264  and  _266
REMARK  100  A    between atoms: _266  and  _267
REMARK  101  A    between atoms: _266  and  _269
REMARK  102  A    between atoms: _269  and  _270
REMARK  103  A    between atoms: _275  and  _277
REMARK  104  A    between atoms: _277  and  _278
REMARK  105  A    between atoms: _277  and  _280
REMARK  106  A    between atoms: _280  and  _281
REMARK  107  A    between atoms: _286  and  _288
REMARK  108  A    between atoms: _288  and  _289
REMARK  109  A    between atoms: _288  and  _291
REMARK  110  A    between atoms: _291  and  _292
REMARK  111  A    between atoms: _292  and  _293
REMARK  112  A    between atoms: _296  and  _298
REMARK  113  A    between atoms: _298  and  _299
REMARK  114  A    between atoms: _298  and  _301
REMARK  115  A    between atoms: _301  and  _302
REMARK  116  A    between atoms: _305  and  _307
REMARK  117  A    between atoms: _307  and  _308
REMARK  118  A    between atoms: _307  and  _310
REMARK  119  A    between atoms: _310  and  _311
REMARK  120  A    between atoms: _313  and  _315
REMARK  121  A    between atoms: _315  and  _316
REMARK  122  A    between atoms: _315  and  _318
REMARK  123  A    between atoms: _318  and  _319
REMARK  124  A    between atoms: _319  and  _320
REMARK  125  A    between atoms: _320  and  _321
REMARK  126  A    between atoms: _321  and  _322
REMARK  127  A    between atoms: _326  and  _328
REMARK  128  A    between atoms: _328  and  _329
REMARK  129  A    between atoms: _328  and  _331
REMARK  130  A    between atoms: _331  and  _332
REMARK  131  A    between atoms: _334  and  _336
REMARK  132  A    between atoms: _336  and  _337
REMARK  133  A    between atoms: _339  and  _341
REMARK  134  A    between atoms: _341  and  _342
REMARK  135  A    between atoms: _341  and  _344
REMARK  136  A    between atoms: _344  and  _345
REMARK  137  A    between atoms: _350  and  _351
REMARK  138  A    between atoms: _353  and  _355
REMARK  139  A    between atoms: _355  and  _356
REMARK  140  A    between atoms: _355  and  _358
REMARK  141  A    between atoms: _361  and  _363
REMARK  142  A    between atoms: _363  and  _364
REMARK  143  A    between atoms: _366  and  _368
REMARK  144  A    between atoms: _368  and  _369
REMARK  145  A    between atoms: _368  and  _371
REMARK  146  A    between atoms: _371  and  _372
REMARK  147  A    between atoms: _377  and  _379
REMARK  148  A    between atoms: _379  and  _380
REMARK  149  A    between atoms: _383  and  _385
REMARK  150  A    between atoms: _385  and  _386
REMARK  151  A    between atoms: _385  and  _388
REMARK  152  A    between atoms: _388  and  _389
REMARK  153  A    between atoms: _394  and  _396
REMARK  154  A    between atoms: _396  and  _397
REMARK  155  A    between atoms: _396  and  _399
REMARK  156  A    between atoms: _399  and  _400
REMARK  157  A    between atoms: _400  and  _401
REMARK  158  A    between atoms: _401  and  _402
REMARK  159  A    between atoms: _402  and  CA_598
REMARK  160  A    between atoms: _404  and  _406
REMARK  161  A    between atoms: _406  and  _407
REMARK  162  A    between atoms: _406  and  _409
REMARK  163  A    between atoms: _409  and  _410
REMARK  164  A    between atoms: _410  and  _411
REMARK  165  A    between atoms: _414  and  _416
REMARK  166  A    between atoms: _416  and  _417
REMARK  167  A    between atoms: _416  and  _419
REMARK  168  A    between atoms: _419  and  _420
REMARK  169  A    between atoms: _422  and  _424
REMARK  170  A    between atoms: _424  and  _425
REMARK  171  A    between atoms: _428  and  _430
REMARK  172  A    between atoms: _430  and  _431
REMARK  173  A    between atoms: _430  and  _433
REMARK  174  A    between atoms: _433  and  _434
REMARK  175  A    between atoms: _434  and  _435
REMARK  176  A    between atoms: _435  and  _436
REMARK  177  A    between atoms: _445  and  _447
REMARK  178  A    between atoms: _447  and  _448
REMARK  179  A    between atoms: _450  and  _452
REMARK  180  A    between atoms: _452  and  _453
REMARK  181  A    between atoms: _452  and  _455
REMARK  182  A    between atoms: _455  and  _456
REMARK  183  A    between atoms: _459  and  _461
REMARK  184  A    between atoms: _461  and  _462
REMARK  185  A    between atoms: _461  and  _464
REMARK  186  A    between atoms: _464  and  _465
REMARK  187  A    between atoms: _465  and  _466
REMARK  188  A    between atoms: _469  and  _471
REMARK  189  A    between atoms: _471  and  _472
REMARK  190  A    between atoms: _471  and  _474
REMARK  191  A    between atoms: _474  and  _475
REMARK  192  A    between atoms: _480  and  _481
REMARK  193  A    between atoms: _483  and  _485
REMARK  194  A    between atoms: _485  and  _486
REMARK  195  A    between atoms: _485  and  _488
REMARK  196  A    between atoms: _488  and  _489
REMARK  197  A    between atoms: _489  and  _490
REMARK  198  A    between atoms: _493  and  _495
REMARK  199  A    between atoms: _495  and  _496
REMARK  200  A    between atoms: _495  and  _498
REMARK  201  A    between atoms: _498  and  _499
REMARK  202  A    between atoms: _501  and  _503
REMARK  203  A    between atoms: _503  and  _504
REMARK  204  A    between atoms: _503  and  _506
REMARK  205  A    between atoms: _506  and  _507
REMARK  206  A    between atoms: _513  and  _515
REMARK  207  A    between atoms: _515  and  _516
REMARK  208  A    between atoms: _518  and  _520
REMARK  209  A    between atoms: _520  and  _521
REMARK  210  A    between atoms: _523  and  _525
REMARK  211  A    between atoms: _525  and  _526
REMARK  212  A    between atoms: _525  and  _528
REMARK  213  A    between atoms: _528  and  _529
REMARK  214  A    between atoms: _532  and  _534
REMARK  215  A    between atoms: _534  and  _535
REMARK  216  A    between atoms: _534  and  _537
REMARK  217  A    between atoms: _537  and  _538
REMARK  218  A    between atoms: _541  and  _543
REMARK  219  A    between atoms: _543  and  _544
REMARK  220  A    between atoms: _547  and  _549
REMARK  221  A    between atoms: _549  and  _550
REMARK  222  A    between atoms: _549  and  _552
REMARK  223  A    between atoms: _552  and  _553
REMARK  224  A    between atoms: _558  and  _560
REMARK  225  A    between atoms: _560  and  _561
REMARK  226  A    between atoms: _560  and  _563
REMARK  227  A    between atoms: _563  and  _564
REMARK  228  A    between atoms: _569  and  _571
REMARK  229  A    between atoms: _571  and  _572
REMARK  230  A    between atoms: _571  and  _574
REMARK  231  A    between atoms: _574  and  _575
REMARK  232  A    between atoms: _577  and  _579
REMARK  233  A    between atoms: _579  and  _580
REMARK  234  A    between atoms: _579  and  _582
REMARK  235  A    between atoms: _582  and  _583
REMARK  236  A    between atoms: _583  and  _584
REMARK  237  A    between atoms: _589  and  _591
REMARK  238  A    between atoms: _591  and  _592
REMARK  239  A    between atoms: _591  and  _594
REMARK  240  A    between atoms: _594  and  _595
REMARK  241  A    between atoms: _595  and  _596
REMARK                            x       y       z     vdW  Elec       q    Type
REMARK                         _______ _______ _______ _____ _____    ______ ____
ROOT
ATOM      1  CG  TRP A   1      25.656  46.517  40.442  0.00  0.00    -0.002 A 
ATOM      2  CD1 TRP A   1      26.639  45.786  39.836  0.00  0.00    +0.068 A 
ATOM      3  NE1 TRP A   1      27.097  46.441  38.717  0.00  0.00    -0.352 N 
ATOM      4  CE2 TRP A   1      26.406  47.616  38.576  0.00  0.00    +0.056 A 
ATOM      5  CZ2 TRP A   1      26.514  48.613  37.599  0.00  0.00    +0.017 A 
ATOM      6  CH2 TRP A   1      25.683  49.700  37.706  0.00  0.00    +0.001 A 
ATOM      7  CZ3 TRP A   1      24.754  49.813  38.759  0.00  0.00    +0.000 A 
ATOM      8  CE3 TRP A   1      24.646  48.817  39.734  0.00  0.00    +0.001 A 
ATOM      9  HE1 TRP A   1      27.846  46.100  38.081  0.00  0.00    +0.166 HD
ATOM     10  CD2 TRP A   1      25.486  47.697  39.646  0.00  0.00    +0.013 A 
ENDROOT
BRANCH   1  11
ATOM     11  CB  TRP A   1      24.942  46.184  41.721  0.00  0.00    +0.053 C 
BRANCH  11  12
ATOM     12  CA  TRP A   1      23.766  45.212  41.594  0.00  0.00    +0.137 C 
BRANCH  12  13
ATOM     13  N   TRP A   1      22.589  45.896  41.070  0.00  0.00    -0.239 NA
ATOM     14  H   TRP A   1      22.548  46.934  41.113  0.00  0.00    +0.142 HD
ENDBRANCH  12  13
BRANCH  12  15
ATOM     15  C   TRP A   1      23.399  44.720  42.992  0.00  0.00    +0.224 C 
ATOM     16  O   TRP A   1      23.851  43.665  43.435  0.00  0.00    -0.287 OA
ENDBRANCH  12  15
ENDBRANCH  11  12
ENDBRANCH   1  11
TORSDOF 4
REMARK  Name = ../refined-set-2016/2zq0/2zq0_pocket.pdb
REMARK  241 active torsions:
REMARK  status: ('A' for Active; 'I' for Inactive)
REMARK    1  A    between atoms: _1  and  _3
REMARK    2  A    between atoms: _3  and  _4
REMARK    3  A    between atoms: _3  and  _6
REMARK    4  A    between atoms: _6  and  _7
REMARK    5  A    between atoms: _10  and  _12
REMARK    6  A    between atoms: _12  and  _13
REMARK    7  A    between atoms: _12  and  _15
REMARK    8  A    between atoms: _15  and  _16
REMARK    9  A    between atoms: _16  and  _17
REMARK   10  A    between atoms: _22  and  _24
REMARK   11  A    between atoms: _24  and  _25
REMARK   12  A    between atoms: _24  and  _27
REMARK   13  A    between atoms: _27  and  _28
REMARK   14  A    between atoms: _28  and  _29
REMARK   15  A    between atoms: _29  and  _31
REMARK   16  A    between atoms: _31  and  CA_598
REMARK   17  A    between atoms: _32  and  _34
REMARK   18  A    between atoms: _34  and  _35
REMARK   19  A    between atoms: _34  and  _37
REMARK   20  A    between atoms: _37  and  _38
REMARK   21  A    between atoms: _42  and  _43
REMARK   22  A    between atoms: _48  and  _50
REMARK   23  A    between atoms: _50  and  _51
REMARK   24  A    between atoms: _50  and  _53
REMARK   25  A    between atoms: _53  and  _54
REMARK   26  A    between atoms: _59  and  _61
REMARK   27  A    between atoms: _61  and  _62
REMARK   28  A    between atoms: _61  and  _64
REMARK   29  A    between atoms: _64  and  _65
REMARK   30  A    between atoms: _67  and  _69
REMARK   31  A    between atoms: _69  and  _70
REMARK   32  A    between atoms: _69  and  _72
REMARK   33  A    between atoms: _72  and  _73
REMARK   34  A    between atoms: _75  and  _77
REMARK   35  A    between atoms: _77  and  _78
REMARK   36  A    between atoms: _77  and  _80
REMARK   37  A    between atoms: _80  and  _81
REMARK   38  A    between atoms: _81  and  _82
REMARK   39  A    between atoms: _87  and  _89
REMARK   40  A    between atoms: _89  and  _90
REMARK   41  A    between atoms: _89  and  _92
REMARK   42  A    between atoms: _92  and  _93
REMARK   43  A    between atoms: _98  and  _99
REMARK   44  A    between atoms: _101  and  _103
REMARK   45  A    between atoms: _103  and  _104
REMARK   46  A    between atoms: _103  and  _106
REMARK   47  A    between atoms: _109  and  _111
REMARK   48  A    between atoms: _111  and  _112
REMARK   49  A    between atoms: _111  and  _114
REMARK   50  A    between atoms: _114  and  _115
REMARK   51  A    between atoms: _125  and  _127
REMARK   52  A    between atoms: _127  and  _128
REMARK   53  A    between atoms: _127  and  _130
REMARK   54  A    between atoms: _130  and  _131
REMARK   55  A    between atoms: _141  and  _143
REMARK   56  A    between atoms: _143  and  _144
REMARK   57  A    between atoms: _143  and  _146
REMARK   58  A    between atoms: _146  and  _147
REMARK   59  A    between atoms: _147  and  _148
REMARK   60  A    between atoms: _150  and  _152
REMARK   61  A    between atoms: _152  and  _153
REMARK   62  A    between atoms: _152  and  _155
REMARK   63  A    between atoms: _155  and  _156
REMARK   64  A    between atoms: _159  and  _161
REMARK   65  A    between atoms: _161  and  _162
REMARK   66  A    between atoms: _161  and  _164
REMARK   67  A    between atoms: _164  and  _165
REMARK   68  A    between atoms: _168  and  _170
REMARK   69  A    between atoms: _170  and  _171
REMARK   70  A    between atoms: _170  and  _173
REMARK   71  A    between atoms: _173  and  _174
REMARK   72  A    between atoms: _184  and  _186
REMARK   73  A    between atoms: _186  and  _187
REMARK   74  A    between atoms: _186  and  _189
REMARK   75  A    between atoms: _189  and  _190
REMARK   76  A    between atoms: _193  and  _195
REMARK   77  A    between atoms: _195  and  _196
REMARK   78  A    between atoms: _195  and  _198
REMARK   79  A    between atoms: _198  and  _199
REMARK   80  A    between atoms: _199  and  _200
REMARK   81  A    between atoms: _203  and  _205
REMARK   82  A    between atoms: _205  and  _206
REMARK   83  A    between atoms: _208  and  _210
REMARK   84  A    between atoms: _210  and  _211
REMARK   85  A    between atoms: _210  and  _213
REMARK   86  A    between atoms: _213  and  _214
REMARK   87  A    between atoms: _224  and  _226
REMARK   88  A    between atoms: _226  and  _227
REMARK   89  A    between atoms: _226  and  _229
REMARK   90  A    between atoms: _229  and  _230
REMARK   91  A    between atoms: _240  and  _242
REMARK   92  A    between atoms: _242  and  _243
REMARK   93  A    between atoms: _242  and  _245
REMARK   94  A    between atoms: _245  and  _246
REMARK   95  A    between atoms: _252  and  _254
REMARK   96  A    between atoms: _254  and  _255
REMARK   97  A    between atoms: _254  and  _257
REMARK   98  A    between atoms: _257  and  _258
REMARK   99  A    between atoms: _264  and  _266
REMARK  100  A    between atoms: _266  and  _267
REMARK  101  A    between atoms: _266  and  _269
REMARK  102  A    between atoms: _269  and  _270
REMARK  103  A    between atoms: _275  and  _277
REMARK  104  A    between atoms: _277  and  _278
REMARK  105  A    between atoms: _277  and  _280
REMARK  106  A    between atoms: _280  and  _281
REMARK  107  A    between atoms: _286  and  _288
REMARK  108  A    between atoms: _288  and  _289
REMARK  109  A    between atoms: _288  and  _291
REMARK  110  A    between atoms: _291  and  _292
REMARK  111  A    between atoms: _292  and  _293
REMARK  112  A    between atoms: _296  and  _298
REMARK  113  A    between atoms: _298  and  _299
REMARK  114  A    between atoms: _298  and  _301
REMARK  115  A    between atoms: _301  and  _302
REMARK  116  A    between atoms: _305  and  _307
REMARK  117  A    between atoms: _307  and  _308
REMARK  118  A    between atoms: _307  and  _310
REMARK  119  A    between atoms: _310  and  _311
REMARK  120  A    between atoms: _313  and  _315
REMARK  121  A    between atoms: _315  and  _316
REMARK  122  A    between atoms: _315  and  _318
REMARK  123  A    between atoms: _318  and  _319
REMARK  124  A    between atoms: _319  and  _320
REMARK  125  A    between atoms: _320  and  _321
REMARK  126  A    between atoms: _321  and  _322
REMARK  127  A    between atoms: _326  and  _328
REMARK  128  A    between atoms: _328  and  _329
REMARK  129  A    between atoms: _328  and  _331
REMARK  130  A    between atoms: _331  and  _332
REMARK  131  A    between atoms: _334  and  _336
REMARK  132  A    between atoms: _336  and  _337
REMARK  133  A    between atoms: _339  and  _341
REMARK  134  A    between atoms: _341  and  _342
REMARK  135  A    between atoms: _341  and  _344
REMARK  136  A    between atoms: _344  and  _345
REMARK  137  A    between atoms: _350  and  _351
REMARK  138  A    between atoms: _353  and  _355
REMARK  139  A    between atoms: _355  and  _356
REMARK  140  A    between atoms: _355  and  _358
REMARK  141  A    between atoms: _361  and  _363
REMARK  142  A    between atoms: _363  and  _364
REMARK  143  A    between atoms: _366  and  _368
REMARK  144  A    between atoms: _368  and  _369
REMARK  145  A    between atoms: _368  and  _371
REMARK  146  A    between atoms: _371  and  _372
REMARK  147  A    between atoms: _377  and  _379
REMARK  148  A    between atoms: _379  and  _380
REMARK  149  A    between atoms: _383  and  _385
REMARK  150  A    between atoms: _385  and  _386
REMARK  151  A    between atoms: _385  and  _388
REMARK  152  A    between atoms: _388  and  _389
REMARK  153  A    between atoms: _394  and  _396
REMARK  154  A    between atoms: _396  and  _397
REMARK  155  A    between atoms: _396  and  _399
REMARK  156  A    between atoms: _399  and  _400
REMARK  157  A    between atoms: _400  and  _401
REMARK  158  A    between atoms: _401  and  _402
REMARK  159  A    between atoms: _402  and  CA_598
REMARK  160  A    between atoms: _404  and  _406
REMARK  161  A    between atoms: _406  and  _407
REMARK  162  A    between atoms: _406  and  _409
REMARK  163  A    between atoms: _409  and  _410
REMARK  164  A    between atoms: _410  and  _411
REMARK  165  A    between atoms: _414  and  _416
REMARK  166  A    between atoms: _416  and  _417
REMARK  167  A    between atoms: _416  and  _419
REMARK  168  A    between atoms: _419  and  _420
REMARK  169  A    between atoms: _422  and  _424
REMARK  170  A    between atoms: _424  and  _425
REMARK  171  A    between atoms: _428  and  _430
REMARK  172  A    between atoms: _430  and  _431
REMARK  173  A    between atoms: _430  and  _433
REMARK  174  A    between atoms: _433  and  _434
REMARK  175  A    between atoms: _434  and  _435
REMARK  176  A    between atoms: _435  and  _436
REMARK  177  A    between atoms: _445  and  _447
REMARK  178  A    between atoms: _447  and  _448
REMARK  179  A    between atoms: _450  and  _452
REMARK  180  A    between atoms: _452  and  _453
REMARK  181  A    between atoms: _452  and  _455
REMARK  182  A    between atoms: _455  and  _456
REMARK  183  A    between atoms: _459  and  _461
REMARK  184  A    between atoms: _461  and  _462
REMARK  185  A    between atoms: _461  and  _464
REMARK  186  A    between atoms: _464  and  _465
REMARK  187  A    between atoms: _465  and  _466
REMARK  188  A    between atoms: _469  and  _471
REMARK  189  A    between atoms: _471  and  _472
REMARK  190  A    between atoms: _471  and  _474
REMARK  191  A    between atoms: _474  and  _475
REMARK  192  A    between atoms: _480  and  _481
REMARK  193  A    between atoms: _483  and  _485
REMARK  194  A    between atoms: _485  and  _486
REMARK  195  A    between atoms: _485  and  _488
REMARK  196  A    between atoms: _488  and  _489
REMARK  197  A    between atoms: _489  and  _490
REMARK  198  A    between atoms: _493  and  _495
REMARK  199  A    between atoms: _495  and  _496
REMARK  200  A    between atoms: _495  and  _498
REMARK  201  A    between atoms: _498  and  _499
REMARK  202  A    between atoms: _501  and  _503
REMARK  203  A    between atoms: _503  and  _504
REMARK  204  A    between atoms: _503  and  _506
REMARK  205  A    between atoms: _506  and  _507
REMARK  206  A    between atoms: _513  and  _515
REMARK  207  A    between atoms: _515  and  _516
REMARK  208  A    between atoms: _518  and  _520
REMARK  209  A    between atoms: _520  and  _521
REMARK  210  A    between atoms: _523  and  _525
REMARK  211  A    between atoms: _525  and  _526
REMARK  212  A    between atoms: _525  and  _528
REMARK  213  A    between atoms: _528  and  _529
REMARK  214  A    between atoms: _532  and  _534
REMARK  215  A    between atoms: _534  and  _535
REMARK  216  A    between atoms: _534  and  _537
REMARK  217  A    between atoms: _537  and  _538
REMARK  218  A    between atoms: _541  and  _543
REMARK  219  A    between atoms: _543  and  _544
REMARK  220  A    between atoms: _547  and  _549
REMARK  221  A    between atoms: _549  and  _550
REMARK  222  A    between atoms: _549  and  _552
REMARK  223  A    between atoms: _552  and  _553
REMARK  224  A    between atoms: _558  and  _560
REMARK  225  A    between atoms: _560  and  _561
REMARK  226  A    between atoms: _560  and  _563
REMARK  227  A    between atoms: _563  and  _564
REMARK  228  A    between atoms: _569  and  _571
REMARK  229  A    between atoms: _571  and  _572
REMARK  230  A    between atoms: _571  and  _574
REMARK  231  A    between atoms: _574  and  _575
REMARK  232  A    between atoms: _577  and  _579
REMARK  233  A    between atoms: _579  and  _580
REMARK  234  A    between atoms: _579  and  _582
REMARK  235  A    between atoms: _582  and  _583
REMARK  236  A    between atoms: _583  and  _584
REMARK  237  A    between atoms: _589  and  _591
REMARK  238  A    between atoms: _591  and  _592
REMARK  239  A    between atoms: _591  and  _594
REMARK  240  A    between atoms: _594  and  _595
REMARK  241  A    between atoms: _595  and  _596
REMARK                            x       y       z     vdW  Elec       q    Type
REMARK                         _______ _______ _______ _____ _____    ______ ____
ROOT
ATOM      1  CA  LEU A   1      31.380  38.566  33.589  0.00  0.00    +0.133 C 
ENDROOT
BRANCH   1   2
ATOM      2  N   LEU A   1      31.192  37.656  32.468  0.00  0.00    -0.239 NA
ATOM      3  H   LEU A   1      30.873  38.041  31.556  0.00  0.00    +0.142 HD
ENDBRANCH   1   2
BRANCH   1   4
ATOM      4  C   LEU A   1      30.068  38.640  34.362  0.00  0.00    +0.224 C 
ATOM      5  O   LEU A   1      28.995  38.586  33.768  0.00  0.00    -0.287 OA
ENDBRANCH   1   4
BRANCH   1   6
ATOM      6  CB  LEU A   1      31.722  39.971  33.077  0.00  0.00    +0.025 C 
BRANCH   6   7
ATOM      7  CG  LEU A   1      31.570  41.124  34.079  0.00  0.00    +0.002 C 
ATOM      8  CD2 LEU A   1      32.687  41.065  35.113  0.00  0.00    +0.000 C 
ATOM      9  CD1 LEU A   1      31.605  42.459  33.343  0.00  0.00    +0.000 C 
ENDBRANCH   6   7
ENDBRANCH   1   6
TORSDOF 4
REMARK  Name = ../refined-set-2016/2zq0/2zq0_pocket.pdb
REMARK  241 active torsions:
REMARK  status: ('A' for Active; 'I' for Inactive)
REMARK    1  A    between atoms: _1  and  _3
REMARK    2  A    between atoms: _3  and  _4
REMARK    3  A    between atoms: _3  and  _6
REMARK    4  A    between atoms: _6  and  _7
REMARK    5  A    between atoms: _10  and  _12
REMARK    6  A    between atoms: _12  and  _13
REMARK    7  A    between atoms: _12  and  _15
REMARK    8  A    between atoms: _15  and  _16
REMARK    9  A    between atoms: _16  and  _17
REMARK   10  A    between atoms: _22  and  _24
REMARK   11  A    between atoms: _24  and  _25
REMARK   12  A    between atoms: _24  and  _27
REMARK   13  A    between atoms: _27  and  _28
REMARK   14  A    between atoms: _28  and  _29
REMARK   15  A    between atoms: _29  and  _31
REMARK   16  A    between atoms: _31  and  CA_598
REMARK   17  A    between atoms: _32  and  _34
REMARK   18  A    between atoms: _34  and  _35
REMARK   19  A    between atoms: _34  and  _37
REMARK   20  A    between atoms: _37  and  _38
REMARK   21  A    between atoms: _42  and  _43
REMARK   22  A    between atoms: _48  and  _50
REMARK   23  A    between atoms: _50  and  _51
REMARK   24  A    between atoms: _50  and  _53
REMARK   25  A    between atoms: _53  and  _54
REMARK   26  A    between atoms: _59  and  _61
REMARK   27  A    between atoms: _61  and  _62
REMARK   28  A    between atoms: _61  and  _64
REMARK   29  A    between atoms: _64  and  _65
REMARK   30  A    between atoms: _67  and  _69
REMARK   31  A    between atoms: _69  and  _70
REMARK   32  A    between atoms: _69  and  _72
REMARK   33  A    between atoms: _72  and  _73
REMARK   34  A    between atoms: _75  and  _77
REMARK   35  A    between atoms: _77  and  _78
REMARK   36  A    between atoms: _77  and  _80
REMARK   37  A    between atoms: _80  and  _81
REMARK   38  A    between atoms: _81  and  _82
REMARK   39  A    between atoms: _87  and  _89
REMARK   40  A    between atoms: _89  and  _90
REMARK   41  A    between atoms: _89  and  _92
REMARK   42  A    between atoms: _92  and  _93
REMARK   43  A    between atoms: _98  and  _99
REMARK   44  A    between atoms: _101  and  _103
REMARK   45  A    between atoms: _103  and  _104
REMARK   46  A    between atoms: _103  and  _106
REMARK   47  A    between atoms: _109  and  _111
REMARK   48  A    between atoms: _111  and  _112
REMARK   49  A    between atoms: _111  and  _114
REMARK   50  A    between atoms: _114  and  _115
REMARK   51  A    between atoms: _125  and  _127
REMARK   52  A    between atoms: _127  and  _128
REMARK   53  A    between atoms: _127  and  _130
REMARK   54  A    between atoms: _130  and  _131
REMARK   55  A    between atoms: _141  and  _143
REMARK   56  A    between atoms: _143  and  _144
REMARK   57  A    between atoms: _143  and  _146
REMARK   58  A    between atoms: _146  and  _147
REMARK   59  A    between atoms: _147  and  _148
REMARK   60  A    between atoms: _150  and  _152
REMARK   61  A    between atoms: _152  and  _153
REMARK   62  A    between atoms: _152  and  _155
REMARK   63  A    between atoms: _155  and  _156
REMARK   64  A    between atoms: _159  and  _161
REMARK   65  A    between atoms: _161  and  _162
REMARK   66  A    between atoms: _161  and  _164
REMARK   67  A    between atoms: _164  and  _165
REMARK   68  A    between atoms: _168  and  _170
REMARK   69  A    between atoms: _170  and  _171
REMARK   70  A    between atoms: _170  and  _173
REMARK   71  A    between atoms: _173  and  _174
REMARK   72  A    between atoms: _184  and  _186
REMARK   73  A    between atoms: _186  and  _187
REMARK   74  A    between atoms: _186  and  _189
REMARK   75  A    between atoms: _189  and  _190
REMARK   76  A    between atoms: _193  and  _195
REMARK   77  A    between atoms: _195  and  _196
REMARK   78  A    between atoms: _195  and  _198
REMARK   79  A    between atoms: _198  and  _199
REMARK   80  A    between atoms: _199  and  _200
REMARK   81  A    between atoms: _203  and  _205
REMARK   82  A    between atoms: _205  and  _206
REMARK   83  A    between atoms: _208  and  _210
REMARK   84  A    between atoms: _210  and  _211
REMARK   85  A    between atoms: _210  and  _213
REMARK   86  A    between atoms: _213  and  _214
REMARK   87  A    between atoms: _224  and  _226
REMARK   88  A    between atoms: _226  and  _227
REMARK   89  A    between atoms: _226  and  _229
REMARK   90  A    between atoms: _229  and  _230
REMARK   91  A    between atoms: _240  and  _242
REMARK   92  A    between atoms: _242  and  _243
REMARK   93  A    between atoms: _242  and  _245
REMARK   94  A    between atoms: _245  and  _246
REMARK   95  A    between atoms: _252  and  _254
REMARK   96  A    between atoms: _254  and  _255
REMARK   97  A    between atoms: _254  and  _257
REMARK   98  A    between atoms: _257  and  _258
REMARK   99  A    between atoms: _264  and  _266
REMARK  100  A    between atoms: _266  and  _267
REMARK  101  A    between atoms: _266  and  _269
REMARK  102  A    between atoms: _269  and  _270
REMARK  103  A    between atoms: _275  and  _277
REMARK  104  A    between atoms: _277  and  _278
REMARK  105  A    between atoms: _277  and  _280
REMARK  106  A    between atoms: _280  and  _281
REMARK  107  A    between atoms: _286  and  _288
REMARK  108  A    between atoms: _288  and  _289
REMARK  109  A    between atoms: _288  and  _291
REMARK  110  A    between atoms: _291  and  _292
REMARK  111  A    between atoms: _292  and  _293
REMARK  112  A    between atoms: _296  and  _298
REMARK  113  A    between atoms: _298  and  _299
REMARK  114  A    between atoms: _298  and  _301
REMARK  115  A    between atoms: _301  and  _302
REMARK  116  A    between atoms: _305  and  _307
REMARK  117  A    between atoms: _307  and  _308
REMARK  118  A    between atoms: _307  and  _310
REMARK  119  A    between atoms: _310  and  _311
REMARK  120  A    between atoms: _313  and  _315
REMARK  121  A    between atoms: _315  and  _316
REMARK  122  A    between atoms: _315  and  _318
REMARK  123  A    between atoms: _318  and  _319
REMARK  124  A    between atoms: _319  and  _320
REMARK  125  A    between atoms: _320  and  _321
REMARK  126  A    between atoms: _321  and  _322
REMARK  127  A    between atoms: _326  and  _328
REMARK  128  A    between atoms: _328  and  _329
REMARK  129  A    between atoms: _328  and  _331
REMARK  130  A    between atoms: _331  and  _332
REMARK  131  A    between atoms: _334  and  _336
REMARK  132  A    between atoms: _336  and  _337
REMARK  133  A    between atoms: _339  and  _341
REMARK  134  A    between atoms: _341  and  _342
REMARK  135  A    between atoms: _341  and  _344
REMARK  136  A    between atoms: _344  and  _345
REMARK  137  A    between atoms: _350  and  _351
REMARK  138  A    between atoms: _353  and  _355
REMARK  139  A    between atoms: _355  and  _356
REMARK  140  A    between atoms: _355  and  _358
REMARK  141  A    between atoms: _361  and  _363
REMARK  142  A    between atoms: _363  and  _364
REMARK  143  A    between atoms: _366  and  _368
REMARK  144  A    between atoms: _368  and  _369
REMARK  145  A    between atoms: _368  and  _371
REMARK  146  A    between atoms: _371  and  _372
REMARK  147  A    between atoms: _377  and  _379
REMARK  148  A    between atoms: _379  and  _380
REMARK  149  A    between atoms: _383  and  _385
REMARK  150  A    between atoms: _385  and  _386
REMARK  151  A    between atoms: _385  and  _388
REMARK  152  A    between atoms: _388  and  _389
REMARK  153  A    between atoms: _394  and  _396
REMARK  154  A    between atoms: _396  and  _397
REMARK  155  A    between atoms: _396  and  _399
REMARK  156  A    between atoms: _399  and  _400
REMARK  157  A    between atoms: _400  and  _401
REMARK  158  A    between atoms: _401  and  _402
REMARK  159  A    between atoms: _402  and  CA_598
REMARK  160  A    between atoms: _404  and  _406
REMARK  161  A    between atoms: _406  and  _407
REMARK  162  A    between atoms: _406  and  _409
REMARK  163  A    between atoms: _409  and  _410
REMARK  164  A    between atoms: _410  and  _411
REMARK  165  A    between atoms: _414  and  _416
REMARK  166  A    between atoms: _416  and  _417
REMARK  167  A    between atoms: _416  and  _419
REMARK  168  A    between atoms: _419  and  _420
REMARK  169  A    between atoms: _422  and  _424
REMARK  170  A    between atoms: _424  and  _425
REMARK  171  A    between atoms: _428  and  _430
REMARK  172  A    between atoms: _430  and  _431
REMARK  173  A    between atoms: _430  and  _433
REMARK  174  A    between atoms: _433  and  _434
REMARK  175  A    between atoms: _434  and  _435
REMARK  176  A    between atoms: _435  and  _436
REMARK  177  A    between atoms: _445  and  _447
REMARK  178  A    between atoms: _447  and  _448
REMARK  179  A    between atoms: _450  and  _452
REMARK  180  A    between atoms: _452  and  _453
REMARK  181  A    between atoms: _452  and  _455
REMARK  182  A    between atoms: _455  and  _456
REMARK  183  A    between atoms: _459  and  _461
REMARK  184  A    between atoms: _461  and  _462
REMARK  185  A    between atoms: _461  and  _464
REMARK  186  A    between atoms: _464  and  _465
REMARK  187  A    between atoms: _465  and  _466
REMARK  188  A    between atoms: _469  and  _471
REMARK  189  A    between atoms: _471  and  _472
REMARK  190  A    between atoms: _471  and  _474
REMARK  191  A    between atoms: _474  and  _475
REMARK  192  A    between atoms: _480  and  _481
REMARK  193  A    between atoms: _483  and  _485
REMARK  194  A    between atoms: _485  and  _486
REMARK  195  A    between atoms: _485  and  _488
REMARK  196  A    between atoms: _488  and  _489
REMARK  197  A    between atoms: _489  and  _490
REMARK  198  A    between atoms: _493  and  _495
REMARK  199  A    between atoms: _495  and  _496
REMARK  200  A    between atoms: _495  and  _498
REMARK  201  A    between atoms: _498  and  _499
REMARK  202  A    between atoms: _501  and  _503
REMARK  203  A    between atoms: _503  and  _504
REMARK  204  A    between atoms: _503  and  _506
REMARK  205  A    between atoms: _506  and  _507
REMARK  206  A    between atoms: _513  and  _515
REMARK  207  A    between atoms: _515  and  _516
REMARK  208  A    between atoms: _518  and  _520
REMARK  209  A    between atoms: _520  and  _521
REMARK  210  A    between atoms: _523  and  _525
REMARK  211  A    between atoms: _525  and  _526
REMARK  212  A    between atoms: _525  and  _528
REMARK  213  A    between atoms: _528  and  _529
REMARK  214  A    between atoms: _532  and  _534
REMARK  215  A    between atoms: _534  and  _535
REMARK  216  A    between atoms: _534  and  _537
REMARK  217  A    between atoms: _537  and  _538
REMARK  218  A    between atoms: _541  and  _543
REMARK  219  A    between atoms: _543  and  _544
REMARK  220  A    between atoms: _547  and  _549
REMARK  221  A    between atoms: _549  and  _550
REMARK  222  A    between atoms: _549  and  _552
REMARK  223  A    between atoms: _552  and  _553
REMARK  224  A    between atoms: _558  and  _560
REMARK  225  A    between atoms: _560  and  _561
REMARK  226  A    between atoms: _560  and  _563
REMARK  227  A    between atoms: _563  and  _564
REMARK  228  A    between atoms: _569  and  _571
REMARK  229  A    between atoms: _571  and  _572
REMARK  230  A    between atoms: _571  and  _574
REMARK  231  A    between atoms: _574  and  _575
REMARK  232  A    between atoms: _577  and  _579
REMARK  233  A    between atoms: _579  and  _580
REMARK  234  A    between atoms: _579  and  _582
REMARK  235  A    between atoms: _582  and  _583
REMARK  236  A    between atoms: _583  and  _584
REMARK  237  A    between atoms: _589  and  _591
REMARK  238  A    between atoms: _591  and  _592
REMARK  239  A    between atoms: _591  and  _594
REMARK  240  A    between atoms: _594  and  _595
REMARK  241  A    between atoms: _595  and  _596
REMARK                            x       y       z     vdW  Elec       q    Type
REMARK                         _______ _______ _______ _____ _____    ______ ____
ROOT
ATOM      1  CA  GLU A   1      28.618  42.056  38.604  0.00  0.00    +0.145 C 
ENDROOT
BRANCH   1   2
ATOM      2  C   GLU A   1      27.451  42.026  39.580  0.00  0.00    +0.238 C 
ATOM      3  N   GLY A   2      27.731  42.396  40.826  0.00  0.00    -0.297 N 
ATOM      4  H   GLY A   2      28.699  42.692  41.064  0.00  0.00    +0.150 HD
ATOM      5  O   GLU A   1      26.325  41.682  39.209  0.00  0.00    -0.274 OA
BRANCH   3   6
ATOM      6  CA  GLY A   2      26.712  42.396  41.862  0.00  0.00    +0.163 C 
BRANCH   6   7
ATOM      7  C   GLY A   2      26.607  41.036  42.530  0.00  0.00    +0.229 C 
ATOM      8  O   GLY A   2      25.597  40.723  43.157  0.00  0.00    -0.286 OA
ENDBRANCH   6   7
ENDBRANCH   3   6
ENDBRANCH   1   2
BRANCH   1   9
ATOM      9  N   GLU A   1      28.452  40.992  37.620  0.00  0.00    -0.238 NA
ATOM     10  H   GLU A   1      27.678  41.058  36.928  0.00  0.00    +0.142 HD
ENDBRANCH   1   9
BRANCH   1  11
ATOM     11  CB  GLU A   1      28.679  43.425  37.926  0.00  0.00    +0.038 C 
BRANCH  11  12
ATOM     12  CG  GLU A   1      29.722  43.524  36.833  0.00  0.00    +0.116 C 
BRANCH  12  13
ATOM     13  CD  GLU A   1      30.052  44.962  36.477  0.00  0.00    +0.365 C 
ATOM     14  OE2 GLU A   1      29.287  45.867  36.874  0.00  0.00    -0.246 OA
ATOM     15  OE1 GLU A   1      31.076  45.181  35.793  0.00  0.00    -0.246 OA
ENDBRANCH  12  13
ENDBRANCH  11  12
ENDBRANCH   1  11
TORSDOF 7
REMARK  Name = ../refined-set-2016/2zq0/2zq0_pocket.pdb
REMARK  241 active torsions:
REMARK  status: ('A' for Active; 'I' for Inactive)
REMARK    1  A    between atoms: _1  and  _3
REMARK    2  A    between atoms: _3  and  _4
REMARK    3  A    between atoms: _3  and  _6
REMARK    4  A    between atoms: _6  and  _7
REMARK    5  A    between atoms: _10  and  _12
REMARK    6  A    between atoms: _12  and  _13
REMARK    7  A    between atoms: _12  and  _15
REMARK    8  A    between atoms: _15  and  _16
REMARK    9  A    between atoms: _16  and  _17
REMARK   10  A    between atoms: _22  and  _24
REMARK   11  A    between atoms: _24  and  _25
REMARK   12  A    between atoms: _24  and  _27
REMARK   13  A    between atoms: _27  and  _28
REMARK   14  A    between atoms: _28  and  _29
REMARK   15  A    between atoms: _29  and  _31
REMARK   16  A    between atoms: _31  and  CA_598
REMARK   17  A    between atoms: _32  and  _34
REMARK   18  A    between atoms: _34  and  _35
REMARK   19  A    between atoms: _34  and  _37
REMARK   20  A    between atoms: _37  and  _38
REMARK   21  A    between atoms: _42  and  _43
REMARK   22  A    between atoms: _48  and  _50
REMARK   23  A    between atoms: _50  and  _51
REMARK   24  A    between atoms: _50  and  _53
REMARK   25  A    between atoms: _53  and  _54
REMARK   26  A    between atoms: _59  and  _61
REMARK   27  A    between atoms: _61  and  _62
REMARK   28  A    between atoms: _61  and  _64
REMARK   29  A    between atoms: _64  and  _65
REMARK   30  A    between atoms: _67  and  _69
REMARK   31  A    between atoms: _69  and  _70
REMARK   32  A    between atoms: _69  and  _72
REMARK   33  A    between atoms: _72  and  _73
REMARK   34  A    between atoms: _75  and  _77
REMARK   35  A    between atoms: _77  and  _78
REMARK   36  A    between atoms: _77  and  _80
REMARK   37  A    between atoms: _80  and  _81
REMARK   38  A    between atoms: _81  and  _82
REMARK   39  A    between atoms: _87  and  _89
REMARK   40  A    between atoms: _89  and  _90
REMARK   41  A    between atoms: _89  and  _92
REMARK   42  A    between atoms: _92  and  _93
REMARK   43  A    between atoms: _98  and  _99
REMARK   44  A    between atoms: _101  and  _103
REMARK   45  A    between atoms: _103  and  _104
REMARK   46  A    between atoms: _103  and  _106
REMARK   47  A    between atoms: _109  and  _111
REMARK   48  A    between atoms: _111  and  _112
REMARK   49  A    between atoms: _111  and  _114
REMARK   50  A    between atoms: _114  and  _115
REMARK   51  A    between atoms: _125  and  _127
REMARK   52  A    between atoms: _127  and  _128
REMARK   53  A    between atoms: _127  and  _130
REMARK   54  A    between atoms: _130  and  _131
REMARK   55  A    between atoms: _141  and  _143
REMARK   56  A    between atoms: _143  and  _144
REMARK   57  A    between atoms: _143  and  _146
REMARK   58  A    between atoms: _146  and  _147
REMARK   59  A    between atoms: _147  and  _148
REMARK   60  A    between atoms: _150  and  _152
REMARK   61  A    between atoms: _152  and  _153
REMARK   62  A    between atoms: _152  and  _155
REMARK   63  A    between atoms: _155  and  _156
REMARK   64  A    between atoms: _159  and  _161
REMARK   65  A    between atoms: _161  and  _162
REMARK   66  A    between atoms: _161  and  _164
REMARK   67  A    between atoms: _164  and  _165
REMARK   68  A    between atoms: _168  and  _170
REMARK   69  A    between atoms: _170  and  _171
REMARK   70  A    between atoms: _170  and  _173
REMARK   71  A    between atoms: _173  and  _174
REMARK   72  A    between atoms: _184  and  _186
REMARK   73  A    between atoms: _186  and  _187
REMARK   74  A    between atoms: _186  and  _189
REMARK   75  A    between atoms: _189  and  _190
REMARK   76  A    between atoms: _193  and  _195
REMARK   77  A    between atoms: _195  and  _196
REMARK   78  A    between atoms: _195  and  _198
REMARK   79  A    between atoms: _198  and  _199
REMARK   80  A    between atoms: _199  and  _200
REMARK   81  A    between atoms: _203  and  _205
REMARK   82  A    between atoms: _205  and  _206
REMARK   83  A    between atoms: _208  and  _210
REMARK   84  A    between atoms: _210  and  _211
REMARK   85  A    between atoms: _210  and  _213
REMARK   86  A    between atoms: _213  and  _214
REMARK   87  A    between atoms: _224  and  _226
REMARK   88  A    between atoms: _226  and  _227
REMARK   89  A    between atoms: _226  and  _229
REMARK   90  A    between atoms: _229  and  _230
REMARK   91  A    between atoms: _240  and  _242
REMARK   92  A    between atoms: _242  and  _243
REMARK   93  A    between atoms: _242  and  _245
REMARK   94  A    between atoms: _245  and  _246
REMARK   95  A    between atoms: _252  and  _254
REMARK   96  A    between atoms: _254  and  _255
REMARK   97  A    between atoms: _254  and  _257
REMARK   98  A    between atoms: _257  and  _258
REMARK   99  A    between atoms: _264  and  _266
REMARK  100  A    between atoms: _266  and  _267
REMARK  101  A    between atoms: _266  and  _269
REMARK  102  A    between atoms: _269  and  _270
REMARK  103  A    between atoms: _275  and  _277
REMARK  104  A    between atoms: _277  and  _278
REMARK  105  A    between atoms: _277  and  _280
REMARK  106  A    between atoms: _280  and  _281
REMARK  107  A    between atoms: _286  and  _288
REMARK  108  A    between atoms: _288  and  _289
REMARK  109  A    between atoms: _288  and  _291
REMARK  110  A    between atoms: _291  and  _292
REMARK  111  A    between atoms: _292  and  _293
REMARK  112  A    between atoms: _296  and  _298
REMARK  113  A    between atoms: _298  and  _299
REMARK  114  A    between atoms: _298  and  _301
REMARK  115  A    between atoms: _301  and  _302
REMARK  116  A    between atoms: _305  and  _307
REMARK  117  A    between atoms: _307  and  _308
REMARK  118  A    between atoms: _307  and  _310
REMARK  119  A    between atoms: _310  and  _311
REMARK  120  A    between atoms: _313  and  _315
REMARK  121  A    between atoms: _315  and  _316
REMARK  122  A    between atoms: _315  and  _318
REMARK  123  A    between atoms: _318  and  _319
REMARK  124  A    between atoms: _319  and  _320
REMARK  125  A    between atoms: _320  and  _321
REMARK  126  A    between atoms: _321  and  _322
REMARK  127  A    between atoms: _326  and  _328
REMARK  128  A    between atoms: _328  and  _329
REMARK  129  A    between atoms: _328  and  _331
REMARK  130  A    between atoms: _331  and  _332
REMARK  131  A    between atoms: _334  and  _336
REMARK  132  A    between atoms: _336  and  _337
REMARK  133  A    between atoms: _339  and  _341
REMARK  134  A    between atoms: _341  and  _342
REMARK  135  A    between atoms: _341  and  _344
REMARK  136  A    between atoms: _344  and  _345
REMARK  137  A    between atoms: _350  and  _351
REMARK  138  A    between atoms: _353  and  _355
REMARK  139  A    between atoms: _355  and  _356
REMARK  140  A    between atoms: _355  and  _358
REMARK  141  A    between atoms: _361  and  _363
REMARK  142  A    between atoms: _363  and  _364
REMARK  143  A    between atoms: _366  and  _368
REMARK  144  A    between atoms: _368  and  _369
REMARK  145  A    between atoms: _368  and  _371
REMARK  146  A    between atoms: _371  and  _372
REMARK  147  A    between atoms: _377  and  _379
REMARK  148  A    between atoms: _379  and  _380
REMARK  149  A    between atoms: _383  and  _385
REMARK  150  A    between atoms: _385  and  _386
REMARK  151  A    between atoms: _385  and  _388
REMARK  152  A    between atoms: _388  and  _389
REMARK  153  A    between atoms: _394  and  _396
REMARK  154  A    between atoms: _396  and  _397
REMARK  155  A    between atoms: _396  and  _399
REMARK  156  A    between atoms: _399  and  _400
REMARK  157  A    between atoms: _400  and  _401
REMARK  158  A    between atoms: _401  and  _402
REMARK  159  A    between atoms: _402  and  CA_598
REMARK  160  A    between atoms: _404  and  _406
REMARK  161  A    between atoms: _406  and  _407
REMARK  162  A    between atoms: _406  and  _409
REMARK  163  A    between atoms: _409  and  _410
REMARK  164  A    between atoms: _410  and  _411
REMARK  165  A    between atoms: _414  and  _416
REMARK  166  A    between atoms: _416  and  _417
REMARK  167  A    between atoms: _416  and  _419
REMARK  168  A    between atoms: _419  and  _420
REMARK  169  A    between atoms: _422  and  _424
REMARK  170  A    between atoms: _424  and  _425
REMARK  171  A    between atoms: _428  and  _430
REMARK  172  A    between atoms: _430  and  _431
REMARK  173  A    between atoms: _430  and  _433
REMARK  174  A    between atoms: _433  and  _434
REMARK  175  A    between atoms: _434  and  _435
REMARK  176  A    between atoms: _435  and  _436
REMARK  177  A    between atoms: _445  and  _447
REMARK  178  A    between atoms: _447  and  _448
REMARK  179  A    between atoms: _450  and  _452
REMARK  180  A    between atoms: _452  and  _453
REMARK  181  A    between atoms: _452  and  _455
REMARK  182  A    between atoms: _455  and  _456
REMARK  183  A    between atoms: _459  and  _461
REMARK  184  A    between atoms: _461  and  _462
REMARK  185  A    between atoms: _461  and  _464
REMARK  186  A    between atoms: _464  and  _465
REMARK  187  A    between atoms: _465  and  _466
REMARK  188  A    between atoms: _469  and  _471
REMARK  189  A    between atoms: _471  and  _472
REMARK  190  A    between atoms: _471  and  _474
REMARK  191  A    between atoms: _474  and  _475
REMARK  192  A    between atoms: _480  and  _481
REMARK  193  A    between atoms: _483  and  _485
REMARK  194  A    between atoms: _485  and  _486
REMARK  195  A    between atoms: _485  and  _488
REMARK  196  A    between atoms: _488  and  _489
REMARK  197  A    between atoms: _489  and  _490
REMARK  198  A    between atoms: _493  and  _495
REMARK  199  A    between atoms: _495  and  _496
REMARK  200  A    between atoms: _495  and  _498
REMARK  201  A    between atoms: _498  and  _499
REMARK  202  A    between atoms: _501  and  _503
REMARK  203  A    between atoms: _503  and  _504
REMARK  204  A    between atoms: _503  and  _506
REMARK  205  A    between atoms: _506  and  _507
REMARK  206  A    between atoms: _513  and  _515
REMARK  207  A    between atoms: _515  and  _516
REMARK  208  A    between atoms: _518  and  _520
REMARK  209  A    between atoms: _520  and  _521
REMARK  210  A    between atoms: _523  and  _525
REMARK  211  A    between atoms: _525  and  _526
REMARK  212  A    between atoms: _525  and  _528
REMARK  213  A    between atoms: _528  and  _529
REMARK  214  A    between atoms: _532  and  _534
REMARK  215  A    between atoms: _534  and  _535
REMARK  216  A    between atoms: _534  and  _537
REMARK  217  A    between atoms: _537  and  _538
REMARK  218  A    between atoms: _541  and  _543
REMARK  219  A    between atoms: _543  and  _544
REMARK  220  A    between atoms: _547  and  _549
REMARK  221  A    between atoms: _549  and  _550
REMARK  222  A    between atoms: _549  and  _552
REMARK  223  A    between atoms: _552  and  _553
REMARK  224  A    between atoms: _558  and  _560
REMARK  225  A    between atoms: _560  and  _561
REMARK  226  A    between atoms: _560  and  _563
REMARK  227  A    between atoms: _563  and  _564
REMARK  228  A    between atoms: _569  and  _571
REMARK  229  A    between atoms: _571  and  _572
REMARK  230  A    between atoms: _571  and  _574
REMARK  231  A    between atoms: _574  and  _575
REMARK  232  A    between atoms: _577  and  _579
REMARK  233  A    between atoms: _579  and  _580
REMARK  234  A    between atoms: _579  and  _582
REMARK  235  A    between atoms: _582  and  _583
REMARK  236  A    between atoms: _583  and  _584
REMARK  237  A    between atoms: _589  and  _591
REMARK  238  A    between atoms: _591  and  _592
REMARK  239  A    between atoms: _591  and  _594
REMARK  240  A    between atoms: _594  and  _595
REMARK  241  A    between atoms: _595  and  _596
REMARK                            x       y       z     vdW  Elec       q    Type
REMARK                         _______ _______ _______ _____ _____    ______ ____
ROOT
ATOM      1  CG  TRP A   1      27.186  45.370  44.649  0.00  0.00    -0.002 A 
ATOM      2  CD1 TRP A   1      27.848  44.183  44.789  0.00  0.00    +0.068 A 
ATOM      3  NE1 TRP A   1      28.929  44.140  43.941  0.00  0.00    -0.352 N 
ATOM      4  HE1 TRP A   1      29.597  43.348  43.853  0.00  0.00    +0.166 HD
ATOM      5  CE2 TRP A   1      28.982  45.311  43.231  0.00  0.00    +0.056 A 
ATOM      6  CZ2 TRP A   1      29.892  45.735  42.254  0.00  0.00    +0.017 A 
ATOM      7  CH2 TRP A   1      29.697  46.977  41.702  0.00  0.00    +0.001 A 
ATOM      8  CZ3 TRP A   1      28.626  47.799  42.100  0.00  0.00    +0.000 A 
ATOM      9  CE3 TRP A   1      27.721  47.377  43.073  0.00  0.00    +0.001 A 
ATOM     10  CD2 TRP A   1      27.896  46.111  43.652  0.00  0.00    +0.013 A 
ENDROOT
BRANCH   1  11
ATOM     11  CB  TRP A   1      26.005  45.845  45.437  0.00  0.00    +0.053 C 
BRANCH  11  12
ATOM     12  CA  TRP A   1      26.445  46.642  46.667  0.00  0.00    +0.137 C 
BRANCH  12  13
ATOM     13  N   TRP A   1      26.873  45.735  47.726  0.00  0.00    -0.239 NA
ATOM     14  H   TRP A   1      26.771  44.708  47.601  0.00  0.00    +0.142 HD
ENDBRANCH  12  13
BRANCH  12  15
ATOM     15  C   TRP A   1      25.400  47.690  47.026  0.00  0.00    +0.224 C 
ATOM     16  O   TRP A   1      25.291  48.710  46.346  0.00  0.00    -0.287 OA
ENDBRANCH  12  15
ENDBRANCH  11  12
ENDBRANCH   1  11
TORSDOF 4
REMARK  Name = ../refined-set-2016/2zq0/2zq0_pocket.pdb
REMARK  241 active torsions:
REMARK  status: ('A' for Active; 'I' for Inactive)
REMARK    1  A    between atoms: _1  and  _3
REMARK    2  A    between atoms: _3  and  _4
REMARK    3  A    between atoms: _3  and  _6
REMARK    4  A    between atoms: _6  and  _7
REMARK    5  A    between atoms: _10  and  _12
REMARK    6  A    between atoms: _12  and  _13
REMARK    7  A    between atoms: _12  and  _15
REMARK    8  A    between atoms: _15  and  _16
REMARK    9  A    between atoms: _16  and  _17
REMARK   10  A    between atoms: _22  and  _24
REMARK   11  A    between atoms: _24  and  _25
REMARK   12  A    between atoms: _24  and  _27
REMARK   13  A    between atoms: _27  and  _28
REMARK   14  A    between atoms: _28  and  _29
REMARK   15  A    between atoms: _29  and  _31
REMARK   16  A    between atoms: _31  and  CA_598
REMARK   17  A    between atoms: _32  and  _34
REMARK   18  A    between atoms: _34  and  _35
REMARK   19  A    between atoms: _34  and  _37
REMARK   20  A    between atoms: _37  and  _38
REMARK   21  A    between atoms: _42  and  _43
REMARK   22  A    between atoms: _48  and  _50
REMARK   23  A    between atoms: _50  and  _51
REMARK   24  A    between atoms: _50  and  _53
REMARK   25  A    between atoms: _53  and  _54
REMARK   26  A    between atoms: _59  and  _61
REMARK   27  A    between atoms: _61  and  _62
REMARK   28  A    between atoms: _61  and  _64
REMARK   29  A    between atoms: _64  and  _65
REMARK   30  A    between atoms: _67  and  _69
REMARK   31  A    between atoms: _69  and  _70
REMARK   32  A    between atoms: _69  and  _72
REMARK   33  A    between atoms: _72  and  _73
REMARK   34  A    between atoms: _75  and  _77
REMARK   35  A    between atoms: _77  and  _78
REMARK   36  A    between atoms: _77  and  _80
REMARK   37  A    between atoms: _80  and  _81
REMARK   38  A    between atoms: _81  and  _82
REMARK   39  A    between atoms: _87  and  _89
REMARK   40  A    between atoms: _89  and  _90
REMARK   41  A    between atoms: _89  and  _92
REMARK   42  A    between atoms: _92  and  _93
REMARK   43  A    between atoms: _98  and  _99
REMARK   44  A    between atoms: _101  and  _103
REMARK   45  A    between atoms: _103  and  _104
REMARK   46  A    between atoms: _103  and  _106
REMARK   47  A    between atoms: _109  and  _111
REMARK   48  A    between atoms: _111  and  _112
REMARK   49  A    between atoms: _111  and  _114
REMARK   50  A    between atoms: _114  and  _115
REMARK   51  A    between atoms: _125  and  _127
REMARK   52  A    between atoms: _127  and  _128
REMARK   53  A    between atoms: _127  and  _130
REMARK   54  A    between atoms: _130  and  _131
REMARK   55  A    between atoms: _141  and  _143
REMARK   56  A    between atoms: _143  and  _144
REMARK   57  A    between atoms: _143  and  _146
REMARK   58  A    between atoms: _146  and  _147
REMARK   59  A    between atoms: _147  and  _148
REMARK   60  A    between atoms: _150  and  _152
REMARK   61  A    between atoms: _152  and  _153
REMARK   62  A    between atoms: _152  and  _155
REMARK   63  A    between atoms: _155  and  _156
REMARK   64  A    between atoms: _159  and  _161
REMARK   65  A    between atoms: _161  and  _162
REMARK   66  A    between atoms: _161  and  _164
REMARK   67  A    between atoms: _164  and  _165
REMARK   68  A    between atoms: _168  and  _170
REMARK   69  A    between atoms: _170  and  _171
REMARK   70  A    between atoms: _170  and  _173
REMARK   71  A    between atoms: _173  and  _174
REMARK   72  A    between atoms: _184  and  _186
REMARK   73  A    between atoms: _186  and  _187
REMARK   74  A    between atoms: _186  and  _189
REMARK   75  A    between atoms: _189  and  _190
REMARK   76  A    between atoms: _193  and  _195
REMARK   77  A    between atoms: _195  and  _196
REMARK   78  A    between atoms: _195  and  _198
REMARK   79  A    between atoms: _198  and  _199
REMARK   80  A    between atoms: _199  and  _200
REMARK   81  A    between atoms: _203  and  _205
REMARK   82  A    between atoms: _205  and  _206
REMARK   83  A    between atoms: _208  and  _210
REMARK   84  A    between atoms: _210  and  _211
REMARK   85  A    between atoms: _210  and  _213
REMARK   86  A    between atoms: _213  and  _214
REMARK   87  A    between atoms: _224  and  _226
REMARK   88  A    between atoms: _226  and  _227
REMARK   89  A    between atoms: _226  and  _229
REMARK   90  A    between atoms: _229  and  _230
REMARK   91  A    between atoms: _240  and  _242
REMARK   92  A    between atoms: _242  and  _243
REMARK   93  A    between atoms: _242  and  _245
REMARK   94  A    between atoms: _245  and  _246
REMARK   95  A    between atoms: _252  and  _254
REMARK   96  A    between atoms: _254  and  _255
REMARK   97  A    between atoms: _254  and  _257
REMARK   98  A    between atoms: _257  and  _258
REMARK   99  A    between atoms: _264  and  _266
REMARK  100  A    between atoms: _266  and  _267
REMARK  101  A    between atoms: _266  and  _269
REMARK  102  A    between atoms: _269  and  _270
REMARK  103  A    between atoms: _275  and  _277
REMARK  104  A    between atoms: _277  and  _278
REMARK  105  A    between atoms: _277  and  _280
REMARK  106  A    between atoms: _280  and  _281
REMARK  107  A    between atoms: _286  and  _288
REMARK  108  A    between atoms: _288  and  _289
REMARK  109  A    between atoms: _288  and  _291
REMARK  110  A    between atoms: _291  and  _292
REMARK  111  A    between atoms: _292  and  _293
REMARK  112  A    between atoms: _296  and  _298
REMARK  113  A    between atoms: _298  and  _299
REMARK  114  A    between atoms: _298  and  _301
REMARK  115  A    between atoms: _301  and  _302
REMARK  116  A    between atoms: _305  and  _307
REMARK  117  A    between atoms: _307  and  _308
REMARK  118  A    between atoms: _307  and  _310
REMARK  119  A    between atoms: _310  and  _311
REMARK  120  A    between atoms: _313  and  _315
REMARK  121  A    between atoms: _315  and  _316
REMARK  122  A    between atoms: _315  and  _318
REMARK  123  A    between atoms: _318  and  _319
REMARK  124  A    between atoms: _319  and  _320
REMARK  125  A    between atoms: _320  and  _321
REMARK  126  A    between atoms: _321  and  _322
REMARK  127  A    between atoms: _326  and  _328
REMARK  128  A    between atoms: _328  and  _329
REMARK  129  A    between atoms: _328  and  _331
REMARK  130  A    between atoms: _331  and  _332
REMARK  131  A    between atoms: _334  and  _336
REMARK  132  A    between atoms: _336  and  _337
REMARK  133  A    between atoms: _339  and  _341
REMARK  134  A    between atoms: _341  and  _342
REMARK  135  A    between atoms: _341  and  _344
REMARK  136  A    between atoms: _344  and  _345
REMARK  137  A    between atoms: _350  and  _351
REMARK  138  A    between atoms: _353  and  _355
REMARK  139  A    between atoms: _355  and  _356
REMARK  140  A    between atoms: _355  and  _358
REMARK  141  A    between atoms: _361  and  _363
REMARK  142  A    between atoms: _363  and  _364
REMARK  143  A    between atoms: _366  and  _368
REMARK  144  A    between atoms: _368  and  _369
REMARK  145  A    between atoms: _368  and  _371
REMARK  146  A    between atoms: _371  and  _372
REMARK  147  A    between atoms: _377  and  _379
REMARK  148  A    between atoms: _379  and  _380
REMARK  149  A    between atoms: _383  and  _385
REMARK  150  A    between atoms: _385  and  _386
REMARK  151  A    between atoms: _385  and  _388
REMARK  152  A    between atoms: _388  and  _389
REMARK  153  A    between atoms: _394  and  _396
REMARK  154  A    between atoms: _396  and  _397
REMARK  155  A    between atoms: _396  and  _399
REMARK  156  A    between atoms: _399  and  _400
REMARK  157  A    between atoms: _400  and  _401
REMARK  158  A    between atoms: _401  and  _402
REMARK  159  A    between atoms: _402  and  CA_598
REMARK  160  A    between atoms: _404  and  _406
REMARK  161  A    between atoms: _406  and  _407
REMARK  162  A    between atoms: _406  and  _409
REMARK  163  A    between atoms: _409  and  _410
REMARK  164  A    between atoms: _410  and  _411
REMARK  165  A    between atoms: _414  and  _416
REMARK  166  A    between atoms: _416  and  _417
REMARK  167  A    between atoms: _416  and  _419
REMARK  168  A    between atoms: _419  and  _420
REMARK  169  A    between atoms: _422  and  _424
REMARK  170  A    between atoms: _424  and  _425
REMARK  171  A    between atoms: _428  and  _430
REMARK  172  A    between atoms: _430  and  _431
REMARK  173  A    between atoms: _430  and  _433
REMARK  174  A    between atoms: _433  and  _434
REMARK  175  A    between atoms: _434  and  _435
REMARK  176  A    between atoms: _435  and  _436
REMARK  177  A    between atoms: _445  and  _447
REMARK  178  A    between atoms: _447  and  _448
REMARK  179  A    between atoms: _450  and  _452
REMARK  180  A    between atoms: _452  and  _453
REMARK  181  A    between atoms: _452  and  _455
REMARK  182  A    between atoms: _455  and  _456
REMARK  183  A    between atoms: _459  and  _461
REMARK  184  A    between atoms: _461  and  _462
REMARK  185  A    between atoms: _461  and  _464
REMARK  186  A    between atoms: _464  and  _465
REMARK  187  A    between atoms: _465  and  _466
REMARK  188  A    between atoms: _469  and  _471
REMARK  189  A    between atoms: _471  and  _472
REMARK  190  A    between atoms: _471  and  _474
REMARK  191  A    between atoms: _474  and  _475
REMARK  192  A    between atoms: _480  and  _481
REMARK  193  A    between atoms: _483  and  _485
REMARK  194  A    between atoms: _485  and  _486
REMARK  195  A    between atoms: _485  and  _488
REMARK  196  A    between atoms: _488  and  _489
REMARK  197  A    between atoms: _489  and  _490
REMARK  198  A    between atoms: _493  and  _495
REMARK  199  A    between atoms: _495  and  _496
REMARK  200  A    between atoms: _495  and  _498
REMARK  201  A    between atoms: _498  and  _499
REMARK  202  A    between atoms: _501  and  _503
REMARK  203  A    between atoms: _503  and  _504
REMARK  204  A    between atoms: _503  and  _506
REMARK  205  A    between atoms: _506  and  _507
REMARK  206  A    between atoms: _513  and  _515
REMARK  207  A    between atoms: _515  and  _516
REMARK  208  A    between atoms: _518  and  _520
REMARK  209  A    between atoms: _520  and  _521
REMARK  210  A    between atoms: _523  and  _525
REMARK  211  A    between atoms: _525  and  _526
REMARK  212  A    between atoms: _525  and  _528
REMARK  213  A    between atoms: _528  and  _529
REMARK  214  A    between atoms: _532  and  _534
REMARK  215  A    between atoms: _534  and  _535
REMARK  216  A    between atoms: _534  and  _537
REMARK  217  A    between atoms: _537  and  _538
REMARK  218  A    between atoms: _541  and  _543
REMARK  219  A    between atoms: _543  and  _544
REMARK  220  A    between atoms: _547  and  _549
REMARK  221  A    between atoms: _549  and  _550
REMARK  222  A    between atoms: _549  and  _552
REMARK  223  A    between atoms: _552  and  _553
REMARK  224  A    between atoms: _558  and  _560
REMARK  225  A    between atoms: _560  and  _561
REMARK  226  A    between atoms: _560  and  _563
REMARK  227  A    between atoms: _563  and  _564
REMARK  228  A    between atoms: _569  and  _571
REMARK  229  A    between atoms: _571  and  _572
REMARK  230  A    between atoms: _571  and  _574
REMARK  231  A    between atoms: _574  and  _575
REMARK  232  A    between atoms: _577  and  _579
REMARK  233  A    between atoms: _579  and  _580
REMARK  234  A    between atoms: _579  and  _582
REMARK  235  A    between atoms: _582  and  _583
REMARK  236  A    between atoms: _583  and  _584
REMARK  237  A    between atoms: _589  and  _591
REMARK  238  A    between atoms: _591  and  _592
REMARK  239  A    between atoms: _591  and  _594
REMARK  240  A    between atoms: _594  and  _595
REMARK  241  A    between atoms: _595  and  _596
REMARK                            x       y       z     vdW  Elec       q    Type
REMARK                         _______ _______ _______ _____ _____    ______ ____
ROOT
ATOM      1  CA  TRP A   1      28.586  51.021  46.641  0.00  0.00    +0.149 C 
ENDROOT
BRANCH   1   2
ATOM      2  C   TRP A   1      28.823  52.411  46.068  0.00  0.00    +0.239 C 
ATOM      3  N   PHE A   2      27.772  53.216  45.964  0.00  0.00    -0.298 N 
ATOM      4  H   PHE A   2      26.851  52.924  46.350  0.00  0.00    +0.150 HD
ATOM      5  O   TRP A   1      29.963  52.756  45.741  0.00  0.00    -0.274 OA
BRANCH   3   6
ATOM      6  CA  PHE A   2      27.912  54.508  45.309  0.00  0.00    +0.141 C 
BRANCH   6   7
ATOM      7  C   PHE A   2      27.920  55.823  46.078  0.00  0.00    +0.227 C 
ATOM      8  O   PHE A   2      26.940  56.203  46.716  0.00  0.00    -0.286 OA
ENDBRANCH   6   7
BRANCH   6   9
ATOM      9  CB  PHE A   2      26.860  54.590  44.196  0.00  0.00    +0.054 C 
BRANCH   9  10
ATOM     10  CG  PHE A   2      27.132  55.661  43.179  0.00  0.00    -0.020 A 
ATOM     11  CD2 PHE A   2      26.516  56.905  43.272  0.00  0.00    -0.004 A 
ATOM     12  CE2 PHE A   2      26.773  57.899  42.328  0.00  0.00    -0.000 A 
ATOM     13  CZ  PHE A   2      27.656  57.652  41.279  0.00  0.00    -0.000 A 
ATOM     14  CE1 PHE A   2      28.278  56.412  41.179  0.00  0.00    -0.000 A 
ATOM     15  CD1 PHE A   2      28.012  55.424  42.128  0.00  0.00    -0.004 A 
ENDBRANCH   9  10
ENDBRANCH   6   9
ENDBRANCH   3   6
ENDBRANCH   1   2
BRANCH   1  16
ATOM     16  N   TRP A   1      27.439  50.806  47.517  0.00  0.00    -0.238 NA
ATOM     17  H   TRP A   1      26.681  50.158  47.223  0.00  0.00    +0.142 HD
ENDBRANCH   1  16
BRANCH   1  18
ATOM     18  CB  TRP A   1      28.540  50.042  45.460  0.00  0.00    +0.054 C 
BRANCH  18  19
ATOM     19  CG  TRP A   1      27.791  50.555  44.249  0.00  0.00    -0.002 A 
ATOM     20  CD1 TRP A   1      26.434  50.596  44.070  0.00  0.00    +0.068 A 
ATOM     21  NE1 TRP A   1      26.132  51.123  42.835  0.00  0.00    -0.352 N 
ATOM     22  HE1 TRP A   1      25.174  51.259  42.454  0.00  0.00    +0.166 HD
ATOM     23  CE2 TRP A   1      27.299  51.439  42.188  0.00  0.00    +0.056 A 
ATOM     24  CZ2 TRP A   1      27.507  51.996  40.919  0.00  0.00    +0.017 A 
ATOM     25  CH2 TRP A   1      28.804  52.206  40.521  0.00  0.00    +0.001 A 
ATOM     26  CZ3 TRP A   1      29.891  51.875  41.355  0.00  0.00    +0.000 A 
ATOM     27  CE3 TRP A   1      29.684  51.320  42.621  0.00  0.00    +0.001 A 
ATOM     28  CD2 TRP A   1      28.368  51.095  43.050  0.00  0.00    +0.013 A 
ENDBRANCH  18  19
ENDBRANCH   1  18
TORSDOF 8
REMARK  Name = ../refined-set-2016/2zq0/2zq0_pocket.pdb
REMARK  241 active torsions:
REMARK  status: ('A' for Active; 'I' for Inactive)
REMARK    1  A    between atoms: _1  and  _3
REMARK    2  A    between atoms: _3  and  _4
REMARK    3  A    between atoms: _3  and  _6
REMARK    4  A    between atoms: _6  and  _7
REMARK    5  A    between atoms: _10  and  _12
REMARK    6  A    between atoms: _12  and  _13
REMARK    7  A    between atoms: _12  and  _15
REMARK    8  A    between atoms: _15  and  _16
REMARK    9  A    between atoms: _16  and  _17
REMARK   10  A    between atoms: _22  and  _24
REMARK   11  A    between atoms: _24  and  _25
REMARK   12  A    between atoms: _24  and  _27
REMARK   13  A    between atoms: _27  and  _28
REMARK   14  A    between atoms: _28  and  _29
REMARK   15  A    between atoms: _29  and  _31
REMARK   16  A    between atoms: _31  and  CA_598
REMARK   17  A    between atoms: _32  and  _34
REMARK   18  A    between atoms: _34  and  _35
REMARK   19  A    between atoms: _34  and  _37
REMARK   20  A    between atoms: _37  and  _38
REMARK   21  A    between atoms: _42  and  _43
REMARK   22  A    between atoms: _48  and  _50
REMARK   23  A    between atoms: _50  and  _51
REMARK   24  A    between atoms: _50  and  _53
REMARK   25  A    between atoms: _53  and  _54
REMARK   26  A    between atoms: _59  and  _61
REMARK   27  A    between atoms: _61  and  _62
REMARK   28  A    between atoms: _61  and  _64
REMARK   29  A    between atoms: _64  and  _65
REMARK   30  A    between atoms: _67  and  _69
REMARK   31  A    between atoms: _69  and  _70
REMARK   32  A    between atoms: _69  and  _72
REMARK   33  A    between atoms: _72  and  _73
REMARK   34  A    between atoms: _75  and  _77
REMARK   35  A    between atoms: _77  and  _78
REMARK   36  A    between atoms: _77  and  _80
REMARK   37  A    between atoms: _80  and  _81
REMARK   38  A    between atoms: _81  and  _82
REMARK   39  A    between atoms: _87  and  _89
REMARK   40  A    between atoms: _89  and  _90
REMARK   41  A    between atoms: _89  and  _92
REMARK   42  A    between atoms: _92  and  _93
REMARK   43  A    between atoms: _98  and  _99
REMARK   44  A    between atoms: _101  and  _103
REMARK   45  A    between atoms: _103  and  _104
REMARK   46  A    between atoms: _103  and  _106
REMARK   47  A    between atoms: _109  and  _111
REMARK   48  A    between atoms: _111  and  _112
REMARK   49  A    between atoms: _111  and  _114
REMARK   50  A    between atoms: _114  and  _115
REMARK   51  A    between atoms: _125  and  _127
REMARK   52  A    between atoms: _127  and  _128
REMARK   53  A    between atoms: _127  and  _130
REMARK   54  A    between atoms: _130  and  _131
REMARK   55  A    between atoms: _141  and  _143
REMARK   56  A    between atoms: _143  and  _144
REMARK   57  A    between atoms: _143  and  _146
REMARK   58  A    between atoms: _146  and  _147
REMARK   59  A    between atoms: _147  and  _148
REMARK   60  A    between atoms: _150  and  _152
REMARK   61  A    between atoms: _152  and  _153
REMARK   62  A    between atoms: _152  and  _155
REMARK   63  A    between atoms: _155  and  _156
REMARK   64  A    between atoms: _159  and  _161
REMARK   65  A    between atoms: _161  and  _162
REMARK   66  A    between atoms: _161  and  _164
REMARK   67  A    between atoms: _164  and  _165
REMARK   68  A    between atoms: _168  and  _170
REMARK   69  A    between atoms: _170  and  _171
REMARK   70  A    between atoms: _170  and  _173
REMARK   71  A    between atoms: _173  and  _174
REMARK   72  A    between atoms: _184  and  _186
REMARK   73  A    between atoms: _186  and  _187
REMARK   74  A    between atoms: _186  and  _189
REMARK   75  A    between atoms: _189  and  _190
REMARK   76  A    between atoms: _193  and  _195
REMARK   77  A    between atoms: _195  and  _196
REMARK   78  A    between atoms: _195  and  _198
REMARK   79  A    between atoms: _198  and  _199
REMARK   80  A    between atoms: _199  and  _200
REMARK   81  A    between atoms: _203  and  _205
REMARK   82  A    between atoms: _205  and  _206
REMARK   83  A    between atoms: _208  and  _210
REMARK   84  A    between atoms: _210  and  _211
REMARK   85  A    between atoms: _210  and  _213
REMARK   86  A    between atoms: _213  and  _214
REMARK   87  A    between atoms: _224  and  _226
REMARK   88  A    between atoms: _226  and  _227
REMARK   89  A    between atoms: _226  and  _229
REMARK   90  A    between atoms: _229  and  _230
REMARK   91  A    between atoms: _240  and  _242
REMARK   92  A    between atoms: _242  and  _243
REMARK   93  A    between atoms: _242  and  _245
REMARK   94  A    between atoms: _245  and  _246
REMARK   95  A    between atoms: _252  and  _254
REMARK   96  A    between atoms: _254  and  _255
REMARK   97  A    between atoms: _254  and  _257
REMARK   98  A    between atoms: _257  and  _258
REMARK   99  A    between atoms: _264  and  _266
REMARK  100  A    between atoms: _266  and  _267
REMARK  101  A    between atoms: _266  and  _269
REMARK  102  A    between atoms: _269  and  _270
REMARK  103  A    between atoms: _275  and  _277
REMARK  104  A    between atoms: _277  and  _278
REMARK  105  A    between atoms: _277  and  _280
REMARK  106  A    between atoms: _280  and  _281
REMARK  107  A    between atoms: _286  and  _288
REMARK  108  A    between atoms: _288  and  _289
REMARK  109  A    between atoms: _288  and  _291
REMARK  110  A    between atoms: _291  and  _292
REMARK  111  A    between atoms: _292  and  _293
REMARK  112  A    between atoms: _296  and  _298
REMARK  113  A    between atoms: _298  and  _299
REMARK  114  A    between atoms: _298  and  _301
REMARK  115  A    between atoms: _301  and  _302
REMARK  116  A    between atoms: _305  and  _307
REMARK  117  A    between atoms: _307  and  _308
REMARK  118  A    between atoms: _307  and  _310
REMARK  119  A    between atoms: _310  and  _311
REMARK  120  A    between atoms: _313  and  _315
REMARK  121  A    between atoms: _315  and  _316
REMARK  122  A    between atoms: _315  and  _318
REMARK  123  A    between atoms: _318  and  _319
REMARK  124  A    between atoms: _319  and  _320
REMARK  125  A    between atoms: _320  and  _321
REMARK  126  A    between atoms: _321  and  _322
REMARK  127  A    between atoms: _326  and  _328
REMARK  128  A    between atoms: _328  and  _329
REMARK  129  A    between atoms: _328  and  _331
REMARK  130  A    between atoms: _331  and  _332
REMARK  131  A    between atoms: _334  and  _336
REMARK  132  A    between atoms: _336  and  _337
REMARK  133  A    between atoms: _339  and  _341
REMARK  134  A    between atoms: _341  and  _342
REMARK  135  A    between atoms: _341  and  _344
REMARK  136  A    between atoms: _344  and  _345
REMARK  137  A    between atoms: _350  and  _351
REMARK  138  A    between atoms: _353  and  _355
REMARK  139  A    between atoms: _355  and  _356
REMARK  140  A    between atoms: _355  and  _358
REMARK  141  A    between atoms: _361  and  _363
REMARK  142  A    between atoms: _363  and  _364
REMARK  143  A    between atoms: _366  and  _368
REMARK  144  A    between atoms: _368  and  _369
REMARK  145  A    between atoms: _368  and  _371
REMARK  146  A    between atoms: _371  and  _372
REMARK  147  A    between atoms: _377  and  _379
REMARK  148  A    between atoms: _379  and  _380
REMARK  149  A    between atoms: _383  and  _385
REMARK  150  A    between atoms: _385  and  _386
REMARK  151  A    between atoms: _385  and  _388
REMARK  152  A    between atoms: _388  and  _389
REMARK  153  A    between atoms: _394  and  _396
REMARK  154  A    between atoms: _396  and  _397
REMARK  155  A    between atoms: _396  and  _399
REMARK  156  A    between atoms: _399  and  _400
REMARK  157  A    between atoms: _400  and  _401
REMARK  158  A    between atoms: _401  and  _402
REMARK  159  A    between atoms: _402  and  CA_598
REMARK  160  A    between atoms: _404  and  _406
REMARK  161  A    between atoms: _406  and  _407
REMARK  162  A    between atoms: _406  and  _409
REMARK  163  A    between atoms: _409  and  _410
REMARK  164  A    between atoms: _410  and  _411
REMARK  165  A    between atoms: _414  and  _416
REMARK  166  A    between atoms: _416  and  _417
REMARK  167  A    between atoms: _416  and  _419
REMARK  168  A    between atoms: _419  and  _420
REMARK  169  A    between atoms: _422  and  _424
REMARK  170  A    between atoms: _424  and  _425
REMARK  171  A    between atoms: _428  and  _430
REMARK  172  A    between atoms: _430  and  _431
REMARK  173  A    between atoms: _430  and  _433
REMARK  174  A    between atoms: _433  and  _434
REMARK  175  A    between atoms: _434  and  _435
REMARK  176  A    between atoms: _435  and  _436
REMARK  177  A    between atoms: _445  and  _447
REMARK  178  A    between atoms: _447  and  _448
REMARK  179  A    between atoms: _450  and  _452
REMARK  180  A    between atoms: _452  and  _453
REMARK  181  A    between atoms: _452  and  _455
REMARK  182  A    between atoms: _455  and  _456
REMARK  183  A    between atoms: _459  and  _461
REMARK  184  A    between atoms: _461  and  _462
REMARK  185  A    between atoms: _461  and  _464
REMARK  186  A    between atoms: _464  and  _465
REMARK  187  A    between atoms: _465  and  _466
REMARK  188  A    between atoms: _469  and  _471
REMARK  189  A    between atoms: _471  and  _472
REMARK  190  A    between atoms: _471  and  _474
REMARK  191  A    between atoms: _474  and  _475
REMARK  192  A    between atoms: _480  and  _481
REMARK  193  A    between atoms: _483  and  _485
REMARK  194  A    between atoms: _485  and  _486
REMARK  195  A    between atoms: _485  and  _488
REMARK  196  A    between atoms: _488  and  _489
REMARK  197  A    between atoms: _489  and  _490
REMARK  198  A    between atoms: _493  and  _495
REMARK  199  A    between atoms: _495  and  _496
REMARK  200  A    between atoms: _495  and  _498
REMARK  201  A    between atoms: _498  and  _499
REMARK  202  A    between atoms: _501  and  _503
REMARK  203  A    between atoms: _503  and  _504
REMARK  204  A    between atoms: _503  and  _506
REMARK  205  A    between atoms: _506  and  _507
REMARK  206  A    between atoms: _513  and  _515
REMARK  207  A    between atoms: _515  and  _516
REMARK  208  A    between atoms: _518  and  _520
REMARK  209  A    between atoms: _520  and  _521
REMARK  210  A    between atoms: _523  and  _525
REMARK  211  A    between atoms: _525  and  _526
REMARK  212  A    between atoms: _525  and  _528
REMARK  213  A    between atoms: _528  and  _529
REMARK  214  A    between atoms: _532  and  _534
REMARK  215  A    between atoms: _534  and  _535
REMARK  216  A    between atoms: _534  and  _537
REMARK  217  A    between atoms: _537  and  _538
REMARK  218  A    between atoms: _541  and  _543
REMARK  219  A    between atoms: _543  and  _544
REMARK  220  A    between atoms: _547  and  _549
REMARK  221  A    between atoms: _549  and  _550
REMARK  222  A    between atoms: _549  and  _552
REMARK  223  A    between atoms: _552  and  _553
REMARK  224  A    between atoms: _558  and  _560
REMARK  225  A    between atoms: _560  and  _561
REMARK  226  A    between atoms: _560  and  _563
REMARK  227  A    between atoms: _563  and  _564
REMARK  228  A    between atoms: _569  and  _571
REMARK  229  A    between atoms: _571  and  _572
REMARK  230  A    between atoms: _571  and  _574
REMARK  231  A    between atoms: _574  and  _575
REMARK  232  A    between atoms: _577  and  _579
REMARK  233  A    between atoms: _579  and  _580
REMARK  234  A    between atoms: _579  and  _582
REMARK  235  A    between atoms: _582  and  _583
REMARK  236  A    between atoms: _583  and  _584
REMARK  237  A    between atoms: _589  and  _591
REMARK  238  A    between atoms: _591  and  _592
REMARK  239  A    between atoms: _591  and  _594
REMARK  240  A    between atoms: _594  and  _595
REMARK  241  A    between atoms: _595  and  _596
REMARK                            x       y       z     vdW  Elec       q    Type
REMARK                         _______ _______ _______ _____ _____    ______ ____
ROOT
ATOM      1  CB  PHE A   1      33.663  45.175  48.500  0.00  0.00    +0.051 C 
ENDROOT
BRANCH   1   2
ATOM      2  CG  PHE A   1      32.604  45.881  47.707  0.00  0.00    -0.020 A 
ATOM      3  CD2 PHE A   1      31.314  45.361  47.618  0.00  0.00    -0.004 A 
ATOM      4  CE2 PHE A   1      30.346  45.986  46.833  0.00  0.00    -0.000 A 
ATOM      5  CZ  PHE A   1      30.663  47.144  46.127  0.00  0.00    -0.000 A 
ATOM      6  CE1 PHE A   1      31.949  47.672  46.215  0.00  0.00    -0.000 A 
ATOM      7  CD1 PHE A   1      32.907  47.042  47.001  0.00  0.00    -0.004 A 
ENDBRANCH   1   2
BRANCH   1   8
ATOM      8  CA  PHE A   1      33.414  45.142  50.014  0.00  0.00    +0.137 C 
BRANCH   8   9
ATOM      9  N   PHE A   1      33.487  46.488  50.582  0.00  0.00    -0.239 NA
ATOM     10  H   PHE A   1      34.420  46.883  50.819  0.00  0.00    +0.142 HD
ENDBRANCH   8   9
BRANCH   8  11
ATOM     11  C   PHE A   1      34.504  44.272  50.631  0.00  0.00    +0.224 C 
ATOM     12  O   PHE A   1      35.501  44.794  51.133  0.00  0.00    -0.287 OA
ENDBRANCH   8  11
ENDBRANCH   1   8
TORSDOF 4
REMARK  Name = ../refined-set-2016/2zq0/2zq0_pocket.pdb
REMARK  241 active torsions:
REMARK  status: ('A' for Active; 'I' for Inactive)
REMARK    1  A    between atoms: _1  and  _3
REMARK    2  A    between atoms: _3  and  _4
REMARK    3  A    between atoms: _3  and  _6
REMARK    4  A    between atoms: _6  and  _7
REMARK    5  A    between atoms: _10  and  _12
REMARK    6  A    between atoms: _12  and  _13
REMARK    7  A    between atoms: _12  and  _15
REMARK    8  A    between atoms: _15  and  _16
REMARK    9  A    between atoms: _16  and  _17
REMARK   10  A    between atoms: _22  and  _24
REMARK   11  A    between atoms: _24  and  _25
REMARK   12  A    between atoms: _24  and  _27
REMARK   13  A    between atoms: _27  and  _28
REMARK   14  A    between atoms: _28  and  _29
REMARK   15  A    between atoms: _29  and  _31
REMARK   16  A    between atoms: _31  and  CA_598
REMARK   17  A    between atoms: _32  and  _34
REMARK   18  A    between atoms: _34  and  _35
REMARK   19  A    between atoms: _34  and  _37
REMARK   20  A    between atoms: _37  and  _38
REMARK   21  A    between atoms: _42  and  _43
REMARK   22  A    between atoms: _48  and  _50
REMARK   23  A    between atoms: _50  and  _51
REMARK   24  A    between atoms: _50  and  _53
REMARK   25  A    between atoms: _53  and  _54
REMARK   26  A    between atoms: _59  and  _61
REMARK   27  A    between atoms: _61  and  _62
REMARK   28  A    between atoms: _61  and  _64
REMARK   29  A    between atoms: _64  and  _65
REMARK   30  A    between atoms: _67  and  _69
REMARK   31  A    between atoms: _69  and  _70
REMARK   32  A    between atoms: _69  and  _72
REMARK   33  A    between atoms: _72  and  _73
REMARK   34  A    between atoms: _75  and  _77
REMARK   35  A    between atoms: _77  and  _78
REMARK   36  A    between atoms: _77  and  _80
REMARK   37  A    between atoms: _80  and  _81
REMARK   38  A    between atoms: _81  and  _82
REMARK   39  A    between atoms: _87  and  _89
REMARK   40  A    between atoms: _89  and  _90
REMARK   41  A    between atoms: _89  and  _92
REMARK   42  A    between atoms: _92  and  _93
REMARK   43  A    between atoms: _98  and  _99
REMARK   44  A    between atoms: _101  and  _103
REMARK   45  A    between atoms: _103  and  _104
REMARK   46  A    between atoms: _103  and  _106
REMARK   47  A    between atoms: _109  and  _111
REMARK   48  A    between atoms: _111  and  _112
REMARK   49  A    between atoms: _111  and  _114
REMARK   50  A    between atoms: _114  and  _115
REMARK   51  A    between atoms: _125  and  _127
REMARK   52  A    between atoms: _127  and  _128
REMARK   53  A    between atoms: _127  and  _130
REMARK   54  A    between atoms: _130  and  _131
REMARK   55  A    between atoms: _141  and  _143
REMARK   56  A    between atoms: _143  and  _144
REMARK   57  A    between atoms: _143  and  _146
REMARK   58  A    between atoms: _146  and  _147
REMARK   59  A    between atoms: _147  and  _148
REMARK   60  A    between atoms: _150  and  _152
REMARK   61  A    between atoms: _152  and  _153
REMARK   62  A    between atoms: _152  and  _155
REMARK   63  A    between atoms: _155  and  _156
REMARK   64  A    between atoms: _159  and  _161
REMARK   65  A    between atoms: _161  and  _162
REMARK   66  A    between atoms: _161  and  _164
REMARK   67  A    between atoms: _164  and  _165
REMARK   68  A    between atoms: _168  and  _170
REMARK   69  A    between atoms: _170  and  _171
REMARK   70  A    between atoms: _170  and  _173
REMARK   71  A    between atoms: _173  and  _174
REMARK   72  A    between atoms: _184  and  _186
REMARK   73  A    between atoms: _186  and  _187
REMARK   74  A    between atoms: _186  and  _189
REMARK   75  A    between atoms: _189  and  _190
REMARK   76  A    between atoms: _193  and  _195
REMARK   77  A    between atoms: _195  and  _196
REMARK   78  A    between atoms: _195  and  _198
REMARK   79  A    between atoms: _198  and  _199
REMARK   80  A    between atoms: _199  and  _200
REMARK   81  A    between atoms: _203  and  _205
REMARK   82  A    between atoms: _205  and  _206
REMARK   83  A    between atoms: _208  and  _210
REMARK   84  A    between atoms: _210  and  _211
REMARK   85  A    between atoms: _210  and  _213
REMARK   86  A    between atoms: _213  and  _214
REMARK   87  A    between atoms: _224  and  _226
REMARK   88  A    between atoms: _226  and  _227
REMARK   89  A    between atoms: _226  and  _229
REMARK   90  A    between atoms: _229  and  _230
REMARK   91  A    between atoms: _240  and  _242
REMARK   92  A    between atoms: _242  and  _243
REMARK   93  A    between atoms: _242  and  _245
REMARK   94  A    between atoms: _245  and  _246
REMARK   95  A    between atoms: _252  and  _254
REMARK   96  A    between atoms: _254  and  _255
REMARK   97  A    between atoms: _254  and  _257
REMARK   98  A    between atoms: _257  and  _258
REMARK   99  A    between atoms: _264  and  _266
REMARK  100  A    between atoms: _266  and  _267
REMARK  101  A    between atoms: _266  and  _269
REMARK  102  A    between atoms: _269  and  _270
REMARK  103  A    between atoms: _275  and  _277
REMARK  104  A    between atoms: _277  and  _278
REMARK  105  A    between atoms: _277  and  _280
REMARK  106  A    between atoms: _280  and  _281
REMARK  107  A    between atoms: _286  and  _288
REMARK  108  A    between atoms: _288  and  _289
REMARK  109  A    between atoms: _288  and  _291
REMARK  110  A    between atoms: _291  and  _292
REMARK  111  A    between atoms: _292  and  _293
REMARK  112  A    between atoms: _296  and  _298
REMARK  113  A    between atoms: _298  and  _299
REMARK  114  A    between atoms: _298  and  _301
REMARK  115  A    between atoms: _301  and  _302
REMARK  116  A    between atoms: _305  and  _307
REMARK  117  A    between atoms: _307  and  _308
REMARK  118  A    between atoms: _307  and  _310
REMARK  119  A    between atoms: _310  and  _311
REMARK  120  A    between atoms: _313  and  _315
REMARK  121  A    between atoms: _315  and  _316
REMARK  122  A    between atoms: _315  and  _318
REMARK  123  A    between atoms: _318  and  _319
REMARK  124  A    between atoms: _319  and  _320
REMARK  125  A    between atoms: _320  and  _321
REMARK  126  A    between atoms: _321  and  _322
REMARK  127  A    between atoms: _326  and  _328
REMARK  128  A    between atoms: _328  and  _329
REMARK  129  A    between atoms: _328  and  _331
REMARK  130  A    between atoms: _331  and  _332
REMARK  131  A    between atoms: _334  and  _336
REMARK  132  A    between atoms: _336  and  _337
REMARK  133  A    between atoms: _339  and  _341
REMARK  134  A    between atoms: _341  and  _342
REMARK  135  A    between atoms: _341  and  _344
REMARK  136  A    between atoms: _344  and  _345
REMARK  137  A    between atoms: _350  and  _351
REMARK  138  A    between atoms: _353  and  _355
REMARK  139  A    between atoms: _355  and  _356
REMARK  140  A    between atoms: _355  and  _358
REMARK  141  A    between atoms: _361  and  _363
REMARK  142  A    between atoms: _363  and  _364
REMARK  143  A    between atoms: _366  and  _368
REMARK  144  A    between atoms: _368  and  _369
REMARK  145  A    between atoms: _368  and  _371
REMARK  146  A    between atoms: _371  and  _372
REMARK  147  A    between atoms: _377  and  _379
REMARK  148  A    between atoms: _379  and  _380
REMARK  149  A    between atoms: _383  and  _385
REMARK  150  A    between atoms: _385  and  _386
REMARK  151  A    between atoms: _385  and  _388
REMARK  152  A    between atoms: _388  and  _389
REMARK  153  A    between atoms: _394  and  _396
REMARK  154  A    between atoms: _396  and  _397
REMARK  155  A    between atoms: _396  and  _399
REMARK  156  A    between atoms: _399  and  _400
REMARK  157  A    between atoms: _400  and  _401
REMARK  158  A    between atoms: _401  and  _402
REMARK  159  A    between atoms: _402  and  CA_598
REMARK  160  A    between atoms: _404  and  _406
REMARK  161  A    between atoms: _406  and  _407
REMARK  162  A    between atoms: _406  and  _409
REMARK  163  A    between atoms: _409  and  _410
REMARK  164  A    between atoms: _410  and  _411
REMARK  165  A    between atoms: _414  and  _416
REMARK  166  A    between atoms: _416  and  _417
REMARK  167  A    between atoms: _416  and  _419
REMARK  168  A    between atoms: _419  and  _420
REMARK  169  A    between atoms: _422  and  _424
REMARK  170  A    between atoms: _424  and  _425
REMARK  171  A    between atoms: _428  and  _430
REMARK  172  A    between atoms: _430  and  _431
REMARK  173  A    between atoms: _430  and  _433
REMARK  174  A    between atoms: _433  and  _434
REMARK  175  A    between atoms: _434  and  _435
REMARK  176  A    between atoms: _435  and  _436
REMARK  177  A    between atoms: _445  and  _447
REMARK  178  A    between atoms: _447  and  _448
REMARK  179  A    between atoms: _450  and  _452
REMARK  180  A    between atoms: _452  and  _453
REMARK  181  A    between atoms: _452  and  _455
REMARK  182  A    between atoms: _455  and  _456
REMARK  183  A    between atoms: _459  and  _461
REMARK  184  A    between atoms: _461  and  _462
REMARK  185  A    between atoms: _461  and  _464
REMARK  186  A    between atoms: _464  and  _465
REMARK  187  A    between atoms: _465  and  _466
REMARK  188  A    between atoms: _469  and  _471
REMARK  189  A    between atoms: _471  and  _472
REMARK  190  A    between atoms: _471  and  _474
REMARK  191  A    between atoms: _474  and  _475
REMARK  192  A    between atoms: _480  and  _481
REMARK  193  A    between atoms: _483  and  _485
REMARK  194  A    between atoms: _485  and  _486
REMARK  195  A    between atoms: _485  and  _488
REMARK  196  A    between atoms: _488  and  _489
REMARK  197  A    between atoms: _489  and  _490
REMARK  198  A    between atoms: _493  and  _495
REMARK  199  A    between atoms: _495  and  _496
REMARK  200  A    between atoms: _495  and  _498
REMARK  201  A    between atoms: _498  and  _499
REMARK  202  A    between atoms: _501  and  _503
REMARK  203  A    between atoms: _503  and  _504
REMARK  204  A    between atoms: _503  and  _506
REMARK  205  A    between atoms: _506  and  _507
REMARK  206  A    between atoms: _513  and  _515
REMARK  207  A    between atoms: _515  and  _516
REMARK  208  A    between atoms: _518  and  _520
REMARK  209  A    between atoms: _520  and  _521
REMARK  210  A    between atoms: _523  and  _525
REMARK  211  A    between atoms: _525  and  _526
REMARK  212  A    between atoms: _525  and  _528
REMARK  213  A    between atoms: _528  and  _529
REMARK  214  A    between atoms: _532  and  _534
REMARK  215  A    between atoms: _534  and  _535
REMARK  216  A    between atoms: _534  and  _537
REMARK  217  A    between atoms: _537  and  _538
REMARK  218  A    between atoms: _541  and  _543
REMARK  219  A    between atoms: _543  and  _544
REMARK  220  A    between atoms: _547  and  _549
REMARK  221  A    between atoms: _549  and  _550
REMARK  222  A    between atoms: _549  and  _552
REMARK  223  A    between atoms: _552  and  _553
REMARK  224  A    between atoms: _558  and  _560
REMARK  225  A    between atoms: _560  and  _561
REMARK  226  A    between atoms: _560  and  _563
REMARK  227  A    between atoms: _563  and  _564
REMARK  228  A    between atoms: _569  and  _571
REMARK  229  A    between atoms: _571  and  _572
REMARK  230  A    between atoms: _571  and  _574
REMARK  231  A    between atoms: _574  and  _575
REMARK  232  A    between atoms: _577  and  _579
REMARK  233  A    between atoms: _579  and  _580
REMARK  234  A    between atoms: _579  and  _582
REMARK  235  A    between atoms: _582  and  _583
REMARK  236  A    between atoms: _583  and  _584
REMARK  237  A    between atoms: _589  and  _591
REMARK  238  A    between atoms: _591  and  _592
REMARK  239  A    between atoms: _591  and  _594
REMARK  240  A    between atoms: _594  and  _595
REMARK  241  A    between atoms: _595  and  _596
REMARK                            x       y       z     vdW  Elec       q    Type
REMARK                         _______ _______ _______ _____ _____    ______ ____
ROOT
ATOM      1  CA  GLU A   3      34.548  47.122  42.092  0.00  0.00    +0.149 C 
ENDROOT
BRANCH   1   3
ATOM      2  C   HIS A   2      36.032  45.234  41.904  0.00  0.00    +0.241 C 
ATOM      3  N   GLU A   3      34.784  45.684  41.996  0.00  0.00    -0.297 N 
ATOM      4  H   GLU A   3      33.984  45.019  42.000  0.00  0.00    +0.150 HD
ATOM      5  O   HIS A   2      36.997  45.995  41.796  0.00  0.00    -0.273 OA
BRANCH   2   6
ATOM      6  CA  HIS A   2      36.250  43.723  41.903  0.00  0.00    +0.155 C 
BRANCH   6   9
ATOM      7  C   HIS A   1      34.855  42.108  40.700  0.00  0.00    +0.239 C 
ATOM      8  O   HIS A   1      34.365  41.632  41.730  0.00  0.00    -0.274 OA
ATOM      9  N   HIS A   2      35.761  43.082  40.691  0.00  0.00    -0.297 N 
ATOM     10  H   HIS A   2      36.138  43.400  39.775  0.00  0.00    +0.150 HD
BRANCH   7  11
ATOM     11  CA  HIS A   1      34.462  41.574  39.335  0.00  0.00    +0.151 C 
BRANCH  11  12
ATOM     12  N   HIS A   1      34.710  40.139  39.319  0.00  0.00    -0.238 NA
ATOM     13  H   HIS A   1      34.268  39.538  40.043  0.00  0.00    +0.142 HD
ENDBRANCH  11  12
BRANCH  11  14
ATOM     14  CB  HIS A   1      32.989  41.885  39.048  0.00  0.00    +0.074 C 
BRANCH  14  15
ATOM     15  CG  HIS A   1      32.672  43.350  39.027  0.00  0.00    +0.082 A 
ATOM     16  CD2 HIS A   1      31.646  44.046  39.571  0.00  0.00    +0.115 A 
ATOM     17  NE2 HIS A   1      31.813  45.363  39.215  0.00  0.00    -0.221 NA
ATOM     18  CE1 HIS A   1      32.905  45.474  38.481  0.00  0.00    +0.199 A 
ATOM     19  ND1 HIS A   1      33.444  44.274  38.352  0.00  0.00    -0.227 NA
ENDBRANCH  14  15
ENDBRANCH  11  14
ENDBRANCH   7  11
ENDBRANCH   6   9
BRANCH   6  20
ATOM     20  CB  HIS A   2      37.753  43.474  42.099  0.00  0.00    +0.076 C 
BRANCH  20  21
ATOM     21  CG  HIS A   2      38.099  42.111  42.615  0.00  0.00    +0.082 A 
ATOM     22  CD2 HIS A   2      37.323  41.060  42.971  0.00  0.00    +0.115 A 
ATOM     23  NE2 HIS A   2      38.166  40.049  43.364  0.00  0.00    -0.221 NA
ATOM     24  CE1 HIS A   2      39.416  40.465  43.257  0.00  0.00    +0.199 A 
ATOM     25  ND1 HIS A   2      39.403  41.708  42.808  0.00  0.00    -0.227 NA
ENDBRANCH  20  21
ENDBRANCH   6  20
ENDBRANCH   2   6
ENDBRANCH   1   3
BRANCH   1  26
ATOM     26  C   GLU A   3      35.023  47.449  43.508  0.00  0.00    +0.241 C 
ATOM     27  O   GLU A   3      34.643  46.770  44.467  0.00  0.00    -0.273 OA
ATOM     28  N   THR A   4      35.866  48.468  43.645  0.00  0.00    -0.295 N 
ATOM     29  H   THR A   4      36.161  49.005  42.805  0.00  0.00    +0.150 HD
BRANCH  28  30
ATOM     30  CA  THR A   4      36.385  48.845  44.958  0.00  0.00    +0.176 C 
BRANCH  30  31
ATOM     31  C   THR A   4      35.655  50.039  45.556  0.00  0.00    +0.243 C 
ATOM     32  O   THR A   4      35.820  50.340  46.738  0.00  0.00    -0.273 OA
ATOM     33  N   SER A   5      34.859  50.715  44.735  0.00  0.00    -0.296 N 
ATOM     34  H   SER A   5      34.737  50.374  43.760  0.00  0.00    +0.150 HD
BRANCH  33  35
ATOM     35  CA  SER A   5      34.150  51.920  45.155  0.00  0.00    +0.166 C 
BRANCH  35  36
ATOM     36  CB  SER A   5      35.180  52.927  45.653  0.00  0.00    +0.229 C 
ATOM     37  OG  SER A   5      34.938  53.710  46.576  0.00  0.00    -0.286 OA
ENDBRANCH  35  36
BRANCH  35  38
ATOM     38  C   SER A   5      33.107  51.608  46.228  0.00  0.00    +0.165 C 
BRANCH  38  39
ATOM     39  O   SER A   5      32.009  50.934  45.630  0.00  0.00    -0.380 OA
ATOM     40  H   SER A   5      31.608  51.512  44.934  0.00  0.00    +0.211 HD
ENDBRANCH  38  39
ENDBRANCH  35  38
ENDBRANCH  33  35
ENDBRANCH  30  31
BRANCH  30  41
ATOM     41  CB  THR A   4      37.871  49.254  44.889  0.00  0.00    +0.137 C 
ATOM     42  CG2 THR A   4      38.702  48.175  44.220  0.00  0.00    +0.034 C 
BRANCH  41  43
ATOM     43  OG1 THR A   4      37.989  50.477  44.147  0.00  0.00    -0.382 OA
ATOM     44  HG1 THR A   4      37.638  50.341  43.231  0.00  0.00    +0.210 HD
ENDBRANCH  41  43
ENDBRANCH  30  41
ENDBRANCH  28  30
ENDBRANCH   1  26
BRANCH   1  45
ATOM     45  CB  GLU A   3      33.057  47.459  41.956  0.00  0.00    +0.041 C 
BRANCH  45  46
ATOM     46  CG  GLU A   3      32.700  48.901  42.357  0.00  0.00    +0.116 C 
BRANCH  46  47
ATOM     47  CD  GLU A   3      33.400  49.949  41.504  0.00  0.00    +0.365 C 
ATOM     48  OE2 GLU A   3      34.221  50.719  42.053  0.00  0.00    -0.246 OA
ATOM     49  OE1 GLU A   3      33.127  50.007  40.289  0.00  0.00    -0.246 OA
ENDBRANCH  46  47
ENDBRANCH  45  46
ENDBRANCH   1  45
TORSDOF 21
REMARK  Name = ../refined-set-2016/2zq0/2zq0_pocket.pdb
REMARK  241 active torsions:
REMARK  status: ('A' for Active; 'I' for Inactive)
REMARK    1  A    between atoms: _1  and  _3
REMARK    2  A    between atoms: _3  and  _4
REMARK    3  A    between atoms: _3  and  _6
REMARK    4  A    between atoms: _6  and  _7
REMARK    5  A    between atoms: _10  and  _12
REMARK    6  A    between atoms: _12  and  _13
REMARK    7  A    between atoms: _12  and  _15
REMARK    8  A    between atoms: _15  and  _16
REMARK    9  A    between atoms: _16  and  _17
REMARK   10  A    between atoms: _22  and  _24
REMARK   11  A    between atoms: _24  and  _25
REMARK   12  A    between atoms: _24  and  _27
REMARK   13  A    between atoms: _27  and  _28
REMARK   14  A    between atoms: _28  and  _29
REMARK   15  A    between atoms: _29  and  _31
REMARK   16  A    between atoms: _31  and  CA_598
REMARK   17  A    between atoms: _32  and  _34
REMARK   18  A    between atoms: _34  and  _35
REMARK   19  A    between atoms: _34  and  _37
REMARK   20  A    between atoms: _37  and  _38
REMARK   21  A    between atoms: _42  and  _43
REMARK   22  A    between atoms: _48  and  _50
REMARK   23  A    between atoms: _50  and  _51
REMARK   24  A    between atoms: _50  and  _53
REMARK   25  A    between atoms: _53  and  _54
REMARK   26  A    between atoms: _59  and  _61
REMARK   27  A    between atoms: _61  and  _62
REMARK   28  A    between atoms: _61  and  _64
REMARK   29  A    between atoms: _64  and  _65
REMARK   30  A    between atoms: _67  and  _69
REMARK   31  A    between atoms: _69  and  _70
REMARK   32  A    between atoms: _69  and  _72
REMARK   33  A    between atoms: _72  and  _73
REMARK   34  A    between atoms: _75  and  _77
REMARK   35  A    between atoms: _77  and  _78
REMARK   36  A    between atoms: _77  and  _80
REMARK   37  A    between atoms: _80  and  _81
REMARK   38  A    between atoms: _81  and  _82
REMARK   39  A    between atoms: _87  and  _89
REMARK   40  A    between atoms: _89  and  _90
REMARK   41  A    between atoms: _89  and  _92
REMARK   42  A    between atoms: _92  and  _93
REMARK   43  A    between atoms: _98  and  _99
REMARK   44  A    between atoms: _101  and  _103
REMARK   45  A    between atoms: _103  and  _104
REMARK   46  A    between atoms: _103  and  _106
REMARK   47  A    between atoms: _109  and  _111
REMARK   48  A    between atoms: _111  and  _112
REMARK   49  A    between atoms: _111  and  _114
REMARK   50  A    between atoms: _114  and  _115
REMARK   51  A    between atoms: _125  and  _127
REMARK   52  A    between atoms: _127  and  _128
REMARK   53  A    between atoms: _127  and  _130
REMARK   54  A    between atoms: _130  and  _131
REMARK   55  A    between atoms: _141  and  _143
REMARK   56  A    between atoms: _143  and  _144
REMARK   57  A    between atoms: _143  and  _146
REMARK   58  A    between atoms: _146  and  _147
REMARK   59  A    between atoms: _147  and  _148
REMARK   60  A    between atoms: _150  and  _152
REMARK   61  A    between atoms: _152  and  _153
REMARK   62  A    between atoms: _152  and  _155
REMARK   63  A    between atoms: _155  and  _156
REMARK   64  A    between atoms: _159  and  _161
REMARK   65  A    between atoms: _161  and  _162
REMARK   66  A    between atoms: _161  and  _164
REMARK   67  A    between atoms: _164  and  _165
REMARK   68  A    between atoms: _168  and  _170
REMARK   69  A    between atoms: _170  and  _171
REMARK   70  A    between atoms: _170  and  _173
REMARK   71  A    between atoms: _173  and  _174
REMARK   72  A    between atoms: _184  and  _186
REMARK   73  A    between atoms: _186  and  _187
REMARK   74  A    between atoms: _186  and  _189
REMARK   75  A    between atoms: _189  and  _190
REMARK   76  A    between atoms: _193  and  _195
REMARK   77  A    between atoms: _195  and  _196
REMARK   78  A    between atoms: _195  and  _198
REMARK   79  A    between atoms: _198  and  _199
REMARK   80  A    between atoms: _199  and  _200
REMARK   81  A    between atoms: _203  and  _205
REMARK   82  A    between atoms: _205  and  _206
REMARK   83  A    between atoms: _208  and  _210
REMARK   84  A    between atoms: _210  and  _211
REMARK   85  A    between atoms: _210  and  _213
REMARK   86  A    between atoms: _213  and  _214
REMARK   87  A    between atoms: _224  and  _226
REMARK   88  A    between atoms: _226  and  _227
REMARK   89  A    between atoms: _226  and  _229
REMARK   90  A    between atoms: _229  and  _230
REMARK   91  A    between atoms: _240  and  _242
REMARK   92  A    between atoms: _242  and  _243
REMARK   93  A    between atoms: _242  and  _245
REMARK   94  A    between atoms: _245  and  _246
REMARK   95  A    between atoms: _252  and  _254
REMARK   96  A    between atoms: _254  and  _255
REMARK   97  A    between atoms: _254  and  _257
REMARK   98  A    between atoms: _257  and  _258
REMARK   99  A    between atoms: _264  and  _266
REMARK  100  A    between atoms: _266  and  _267
REMARK  101  A    between atoms: _266  and  _269
REMARK  102  A    between atoms: _269  and  _270
REMARK  103  A    between atoms: _275  and  _277
REMARK  104  A    between atoms: _277  and  _278
REMARK  105  A    between atoms: _277  and  _280
REMARK  106  A    between atoms: _280  and  _281
REMARK  107  A    between atoms: _286  and  _288
REMARK  108  A    between atoms: _288  and  _289
REMARK  109  A    between atoms: _288  and  _291
REMARK  110  A    between atoms: _291  and  _292
REMARK  111  A    between atoms: _292  and  _293
REMARK  112  A    between atoms: _296  and  _298
REMARK  113  A    between atoms: _298  and  _299
REMARK  114  A    between atoms: _298  and  _301
REMARK  115  A    between atoms: _301  and  _302
REMARK  116  A    between atoms: _305  and  _307
REMARK  117  A    between atoms: _307  and  _308
REMARK  118  A    between atoms: _307  and  _310
REMARK  119  A    between atoms: _310  and  _311
REMARK  120  A    between atoms: _313  and  _315
REMARK  121  A    between atoms: _315  and  _316
REMARK  122  A    between atoms: _315  and  _318
REMARK  123  A    between atoms: _318  and  _319
REMARK  124  A    between atoms: _319  and  _320
REMARK  125  A    between atoms: _320  and  _321
REMARK  126  A    between atoms: _321  and  _322
REMARK  127  A    between atoms: _326  and  _328
REMARK  128  A    between atoms: _328  and  _329
REMARK  129  A    between atoms: _328  and  _331
REMARK  130  A    between atoms: _331  and  _332
REMARK  131  A    between atoms: _334  and  _336
REMARK  132  A    between atoms: _336  and  _337
REMARK  133  A    between atoms: _339  and  _341
REMARK  134  A    between atoms: _341  and  _342
REMARK  135  A    between atoms: _341  and  _344
REMARK  136  A    between atoms: _344  and  _345
REMARK  137  A    between atoms: _350  and  _351
REMARK  138  A    between atoms: _353  and  _355
REMARK  139  A    between atoms: _355  and  _356
REMARK  140  A    between atoms: _355  and  _358
REMARK  141  A    between atoms: _361  and  _363
REMARK  142  A    between atoms: _363  and  _364
REMARK  143  A    between atoms: _366  and  _368
REMARK  144  A    between atoms: _368  and  _369
REMARK  145  A    between atoms: _368  and  _371
REMARK  146  A    between atoms: _371  and  _372
REMARK  147  A    between atoms: _377  and  _379
REMARK  148  A    between atoms: _379  and  _380
REMARK  149  A    between atoms: _383  and  _385
REMARK  150  A    between atoms: _385  and  _386
REMARK  151  A    between atoms: _385  and  _388
REMARK  152  A    between atoms: _388  and  _389
REMARK  153  A    between atoms: _394  and  _396
REMARK  154  A    between atoms: _396  and  _397
REMARK  155  A    between atoms: _396  and  _399
REMARK  156  A    between atoms: _399  and  _400
REMARK  157  A    between atoms: _400  and  _401
REMARK  158  A    between atoms: _401  and  _402
REMARK  159  A    between atoms: _402  and  CA_598
REMARK  160  A    between atoms: _404  and  _406
REMARK  161  A    between atoms: _406  and  _407
REMARK  162  A    between atoms: _406  and  _409
REMARK  163  A    between atoms: _409  and  _410
REMARK  164  A    between atoms: _410  and  _411
REMARK  165  A    between atoms: _414  and  _416
REMARK  166  A    between atoms: _416  and  _417
REMARK  167  A    between atoms: _416  and  _419
REMARK  168  A    between atoms: _419  and  _420
REMARK  169  A    between atoms: _422  and  _424
REMARK  170  A    between atoms: _424  and  _425
REMARK  171  A    between atoms: _428  and  _430
REMARK  172  A    between atoms: _430  and  _431
REMARK  173  A    between atoms: _430  and  _433
REMARK  174  A    between atoms: _433  and  _434
REMARK  175  A    between atoms: _434  and  _435
REMARK  176  A    between atoms: _435  and  _436
REMARK  177  A    between atoms: _445  and  _447
REMARK  178  A    between atoms: _447  and  _448
REMARK  179  A    between atoms: _450  and  _452
REMARK  180  A    between atoms: _452  and  _453
REMARK  181  A    between atoms: _452  and  _455
REMARK  182  A    between atoms: _455  and  _456
REMARK  183  A    between atoms: _459  and  _461
REMARK  184  A    between atoms: _461  and  _462
REMARK  185  A    between atoms: _461  and  _464
REMARK  186  A    between atoms: _464  and  _465
REMARK  187  A    between atoms: _465  and  _466
REMARK  188  A    between atoms: _469  and  _471
REMARK  189  A    between atoms: _471  and  _472
REMARK  190  A    between atoms: _471  and  _474
REMARK  191  A    between atoms: _474  and  _475
REMARK  192  A    between atoms: _480  and  _481
REMARK  193  A    between atoms: _483  and  _485
REMARK  194  A    between atoms: _485  and  _486
REMARK  195  A    between atoms: _485  and  _488
REMARK  196  A    between atoms: _488  and  _489
REMARK  197  A    between atoms: _489  and  _490
REMARK  198  A    between atoms: _493  and  _495
REMARK  199  A    between atoms: _495  and  _496
REMARK  200  A    between atoms: _495  and  _498
REMARK  201  A    between atoms: _498  and  _499
REMARK  202  A    between atoms: _501  and  _503
REMARK  203  A    between atoms: _503  and  _504
REMARK  204  A    between atoms: _503  and  _506
REMARK  205  A    between atoms: _506  and  _507
REMARK  206  A    between atoms: _513  and  _515
REMARK  207  A    between atoms: _515  and  _516
REMARK  208  A    between atoms: _518  and  _520
REMARK  209  A    between atoms: _520  and  _521
REMARK  210  A    between atoms: _523  and  _525
REMARK  211  A    between atoms: _525  and  _526
REMARK  212  A    between atoms: _525  and  _528
REMARK  213  A    between atoms: _528  and  _529
REMARK  214  A    between atoms: _532  and  _534
REMARK  215  A    between atoms: _534  and  _535
REMARK  216  A    between atoms: _534  and  _537
REMARK  217  A    between atoms: _537  and  _538
REMARK  218  A    between atoms: _541  and  _543
REMARK  219  A    between atoms: _543  and  _544
REMARK  220  A    between atoms: _547  and  _549
REMARK  221  A    between atoms: _549  and  _550
REMARK  222  A    between atoms: _549  and  _552
REMARK  223  A    between atoms: _552  and  _553
REMARK  224  A    between atoms: _558  and  _560
REMARK  225  A    between atoms: _560  and  _561
REMARK  226  A    between atoms: _560  and  _563
REMARK  227  A    between atoms: _563  and  _564
REMARK  228  A    between atoms: _569  and  _571
REMARK  229  A    between atoms: _571  and  _572
REMARK  230  A    between atoms: _571  and  _574
REMARK  231  A    between atoms: _574  and  _575
REMARK  232  A    between atoms: _577  and  _579
REMARK  233  A    between atoms: _579  and  _580
REMARK  234  A    between atoms: _579  and  _582
REMARK  235  A    between atoms: _582  and  _583
REMARK  236  A    between atoms: _583  and  _584
REMARK  237  A    between atoms: _589  and  _591
REMARK  238  A    between atoms: _591  and  _592
REMARK  239  A    between atoms: _591  and  _594
REMARK  240  A    between atoms: _594  and  _595
REMARK  241  A    between atoms: _595  and  _596
REMARK                            x       y       z     vdW  Elec       q    Type
REMARK                         _______ _______ _______ _____ _____    ______ ____
ROOT
ATOM      1  C   GLY A   3      37.204  50.308  40.485  0.00  0.00    +0.243 C 
ATOM      2  O   GLY A   3      37.463  49.822  41.586  0.00  0.00    -0.273 OA
ATOM      3  N   TYR A   4      37.187  51.617  40.253  0.00  0.00    -0.297 N 
ATOM      4  H   TYR A   4      36.944  51.959  39.302  0.00  0.00    +0.150 HD
ENDROOT
BRANCH   3   5
ATOM      5  CA  TYR A   4      37.501  52.588  41.300  0.00  0.00    +0.153 C 
BRANCH   5   6
ATOM      6  C   TYR A   4      36.533  53.770  41.231  0.00  0.00    +0.241 C 
ATOM      7  N   VAL A   5      35.245  53.478  41.390  0.00  0.00    -0.297 N 
ATOM      8  H   VAL A   5      34.966  52.492  41.568  0.00  0.00    +0.150 HD
ATOM      9  O   TYR A   4      36.942  54.920  41.050  0.00  0.00    -0.273 OA
BRANCH   7  10
ATOM     10  CA  VAL A   5      34.214  54.508  41.321  0.00  0.00    +0.149 C 
BRANCH  10  11
ATOM     11  C   VAL A   5      34.023  55.249  42.634  0.00  0.00    +0.241 C 
ATOM     12  O   VAL A   5      33.746  54.646  43.673  0.00  0.00    -0.273 OA
ATOM     13  N   GLY A   6      34.171  56.568  42.563  0.00  0.00    -0.296 N 
ATOM     14  H   GLY A   6      34.392  57.004  41.645  0.00  0.00    +0.150 HD
BRANCH  13  15
ATOM     15  CA  GLY A   6      34.032  57.416  43.731  0.00  0.00    +0.163 C 
BRANCH  15  16
ATOM     16  C   GLY A   6      35.338  58.132  44.016  0.00  0.00    +0.229 C 
ATOM     17  O   GLY A   6      36.357  57.846  43.389  0.00  0.00    -0.286 OA
ENDBRANCH  15  16
ENDBRANCH  13  15
ENDBRANCH  10  11
BRANCH  10  18
ATOM     18  CB  VAL A   5      32.866  53.908  40.871  0.00  0.00    +0.027 C 
ATOM     19  CG2 VAL A   5      31.780  54.985  40.873  0.00  0.00    +0.002 C 
ATOM     20  CG1 VAL A   5      33.013  53.323  39.477  0.00  0.00    +0.002 C 
ENDBRANCH  10  18
ENDBRANCH   7  10
ENDBRANCH   5   6
BRANCH   5  21
ATOM     21  CB  TYR A   4      38.949  53.064  41.128  0.00  0.00    +0.055 C 
BRANCH  21  22
ATOM     22  CG  TYR A   4      39.967  51.950  41.295  0.00  0.00    -0.020 A 
ATOM     23  CD2 TYR A   4      40.554  51.696  42.536  0.00  0.00    -0.001 A 
ATOM     24  CE2 TYR A   4      41.450  50.635  42.708  0.00  0.00    +0.036 A 
ATOM     25  CZ  TYR A   4      41.764  49.817  41.627  0.00  0.00    +0.134 A 
ATOM     26  CE1 TYR A   4      41.197  50.052  40.385  0.00  0.00    +0.036 A 
ATOM     27  CD1 TYR A   4      40.304  51.117  40.223  0.00  0.00    -0.001 A 
BRANCH  25  28
ATOM     28  OH  TYR A   4      42.640  48.767  41.789  0.00  0.00    -0.506 OA
ATOM     29  HH  TYR A   4      42.951  48.740  42.729  0.00  0.00    +0.292 HD
ENDBRANCH  25  28
ENDBRANCH  21  22
ENDBRANCH   5  21
ENDBRANCH   3   5
BRANCH   1  30
ATOM     30  CA  GLY A   3      36.878  49.409  39.312  0.00  0.00    +0.176 C 
BRANCH  30  32
ATOM     31  C   SER A   2      37.766  47.325  38.470  0.00  0.00    +0.243 C 
ATOM     32  N   GLY A   3      37.442  48.085  39.510  0.00  0.00    -0.295 N 
ATOM     33  H   GLY A   3      37.594  47.729  40.475  0.00  0.00    +0.150 HD
ATOM     34  O   SER A   2      37.588  47.673  37.303  0.00  0.00    -0.273 OA
BRANCH  31  35
ATOM     35  CA  SER A   2      38.354  45.959  38.791  0.00  0.00    +0.178 C 
BRANCH  35  38
ATOM     36  C   LYS A   1      37.485  44.178  37.392  0.00  0.00    +0.238 C 
ATOM     37  O   LYS A   1      36.655  43.865  38.246  0.00  0.00    -0.274 OA
ATOM     38  N   SER A   2      38.365  45.158  37.571  0.00  0.00    -0.295 N 
ATOM     39  H   SER A   2      39.070  45.356  36.833  0.00  0.00    +0.150 HD
BRANCH  36  40
ATOM     40  CA  LYS A   1      37.562  43.412  36.079  0.00  0.00    +0.145 C 
BRANCH  40  41
ATOM     41  N   LYS A   1      37.912  42.064  36.495  0.00  0.00    -0.238 NA
ATOM     42  H   LYS A   1      37.164  41.455  36.884  0.00  0.00    +0.142 HD
ENDBRANCH  40  41
BRANCH  40  43
ATOM     43  CB  LYS A   1      36.188  43.437  35.400  0.00  0.00    +0.026 C 
BRANCH  43  44
ATOM     44  CG  LYS A   1      35.684  44.845  35.100  0.00  0.00    -0.000 C 
BRANCH  44  45
ATOM     45  CD  LYS A   1      34.288  44.823  34.487  0.00  0.00    -0.024 C 
BRANCH  45  46
ATOM     46  CE  LYS A   1      33.760  46.244  34.299  0.00  0.00    -0.086 C 
BRANCH  46  47
ATOM     47  NZ  LYS A   1      32.388  46.246  33.697  0.00  0.00    +0.380 N 
ATOM     48  HZ1 LYS A   1      31.735  45.732  34.323  0.00  0.00    -0.089 HD
ATOM     49  HZ2 LYS A   1      32.062  47.227  33.584  0.00  0.00    -0.089 HD
ATOM     50  HZ3 LYS A   1      32.418  45.780  32.768  0.00  0.00    -0.089 HD
ENDBRANCH  46  47
ENDBRANCH  45  46
ENDBRANCH  44  45
ENDBRANCH  43  44
ENDBRANCH  40  43
ENDBRANCH  36  40
ENDBRANCH  35  38
BRANCH  35  51
ATOM     51  CB  SER A   2      39.773  46.118  39.346  0.00  0.00    +0.166 C 
BRANCH  51  52
ATOM     52  OG  SER A   2      40.616  46.783  38.418  0.00  0.00    -0.380 OA
ATOM     53  H   SER A   2      41.524  46.871  38.803  0.00  0.00    +0.211 HD
ENDBRANCH  51  52
ENDBRANCH  35  51
ENDBRANCH  31  35
ENDBRANCH  30  32
ENDBRANCH   1  30
TORSDOF 23
REMARK  Name = ../refined-set-2016/2zq0/2zq0_pocket.pdb
REMARK  241 active torsions:
REMARK  status: ('A' for Active; 'I' for Inactive)
REMARK    1  A    between atoms: _1  and  _3
REMARK    2  A    between atoms: _3  and  _4
REMARK    3  A    between atoms: _3  and  _6
REMARK    4  A    between atoms: _6  and  _7
REMARK    5  A    between atoms: _10  and  _12
REMARK    6  A    between atoms: _12  and  _13
REMARK    7  A    between atoms: _12  and  _15
REMARK    8  A    between atoms: _15  and  _16
REMARK    9  A    between atoms: _16  and  _17
REMARK   10  A    between atoms: _22  and  _24
REMARK   11  A    between atoms: _24  and  _25
REMARK   12  A    between atoms: _24  and  _27
REMARK   13  A    between atoms: _27  and  _28
REMARK   14  A    between atoms: _28  and  _29
REMARK   15  A    between atoms: _29  and  _31
REMARK   16  A    between atoms: _31  and  CA_598
REMARK   17  A    between atoms: _32  and  _34
REMARK   18  A    between atoms: _34  and  _35
REMARK   19  A    between atoms: _34  and  _37
REMARK   20  A    between atoms: _37  and  _38
REMARK   21  A    between atoms: _42  and  _43
REMARK   22  A    between atoms: _48  and  _50
REMARK   23  A    between atoms: _50  and  _51
REMARK   24  A    between atoms: _50  and  _53
REMARK   25  A    between atoms: _53  and  _54
REMARK   26  A    between atoms: _59  and  _61
REMARK   27  A    between atoms: _61  and  _62
REMARK   28  A    between atoms: _61  and  _64
REMARK   29  A    between atoms: _64  and  _65
REMARK   30  A    between atoms: _67  and  _69
REMARK   31  A    between atoms: _69  and  _70
REMARK   32  A    between atoms: _69  and  _72
REMARK   33  A    between atoms: _72  and  _73
REMARK   34  A    between atoms: _75  and  _77
REMARK   35  A    between atoms: _77  and  _78
REMARK   36  A    between atoms: _77  and  _80
REMARK   37  A    between atoms: _80  and  _81
REMARK   38  A    between atoms: _81  and  _82
REMARK   39  A    between atoms: _87  and  _89
REMARK   40  A    between atoms: _89  and  _90
REMARK   41  A    between atoms: _89  and  _92
REMARK   42  A    between atoms: _92  and  _93
REMARK   43  A    between atoms: _98  and  _99
REMARK   44  A    between atoms: _101  and  _103
REMARK   45  A    between atoms: _103  and  _104
REMARK   46  A    between atoms: _103  and  _106
REMARK   47  A    between atoms: _109  and  _111
REMARK   48  A    between atoms: _111  and  _112
REMARK   49  A    between atoms: _111  and  _114
REMARK   50  A    between atoms: _114  and  _115
REMARK   51  A    between atoms: _125  and  _127
REMARK   52  A    between atoms: _127  and  _128
REMARK   53  A    between atoms: _127  and  _130
REMARK   54  A    between atoms: _130  and  _131
REMARK   55  A    between atoms: _141  and  _143
REMARK   56  A    between atoms: _143  and  _144
REMARK   57  A    between atoms: _143  and  _146
REMARK   58  A    between atoms: _146  and  _147
REMARK   59  A    between atoms: _147  and  _148
REMARK   60  A    between atoms: _150  and  _152
REMARK   61  A    between atoms: _152  and  _153
REMARK   62  A    between atoms: _152  and  _155
REMARK   63  A    between atoms: _155  and  _156
REMARK   64  A    between atoms: _159  and  _161
REMARK   65  A    between atoms: _161  and  _162
REMARK   66  A    between atoms: _161  and  _164
REMARK   67  A    between atoms: _164  and  _165
REMARK   68  A    between atoms: _168  and  _170
REMARK   69  A    between atoms: _170  and  _171
REMARK   70  A    between atoms: _170  and  _173
REMARK   71  A    between atoms: _173  and  _174
REMARK   72  A    between atoms: _184  and  _186
REMARK   73  A    between atoms: _186  and  _187
REMARK   74  A    between atoms: _186  and  _189
REMARK   75  A    between atoms: _189  and  _190
REMARK   76  A    between atoms: _193  and  _195
REMARK   77  A    between atoms: _195  and  _196
REMARK   78  A    between atoms: _195  and  _198
REMARK   79  A    between atoms: _198  and  _199
REMARK   80  A    between atoms: _199  and  _200
REMARK   81  A    between atoms: _203  and  _205
REMARK   82  A    between atoms: _205  and  _206
REMARK   83  A    between atoms: _208  and  _210
REMARK   84  A    between atoms: _210  and  _211
REMARK   85  A    between atoms: _210  and  _213
REMARK   86  A    between atoms: _213  and  _214
REMARK   87  A    between atoms: _224  and  _226
REMARK   88  A    between atoms: _226  and  _227
REMARK   89  A    between atoms: _226  and  _229
REMARK   90  A    between atoms: _229  and  _230
REMARK   91  A    between atoms: _240  and  _242
REMARK   92  A    between atoms: _242  and  _243
REMARK   93  A    between atoms: _242  and  _245
REMARK   94  A    between atoms: _245  and  _246
REMARK   95  A    between atoms: _252  and  _254
REMARK   96  A    between atoms: _254  and  _255
REMARK   97  A    between atoms: _254  and  _257
REMARK   98  A    between atoms: _257  and  _258
REMARK   99  A    between atoms: _264  and  _266
REMARK  100  A    between atoms: _266  and  _267
REMARK  101  A    between atoms: _266  and  _269
REMARK  102  A    between atoms: _269  and  _270
REMARK  103  A    between atoms: _275  and  _277
REMARK  104  A    between atoms: _277  and  _278
REMARK  105  A    between atoms: _277  and  _280
REMARK  106  A    between atoms: _280  and  _281
REMARK  107  A    between atoms: _286  and  _288
REMARK  108  A    between atoms: _288  and  _289
REMARK  109  A    between atoms: _288  and  _291
REMARK  110  A    between atoms: _291  and  _292
REMARK  111  A    between atoms: _292  and  _293
REMARK  112  A    between atoms: _296  and  _298
REMARK  113  A    between atoms: _298  and  _299
REMARK  114  A    between atoms: _298  and  _301
REMARK  115  A    between atoms: _301  and  _302
REMARK  116  A    between atoms: _305  and  _307
REMARK  117  A    between atoms: _307  and  _308
REMARK  118  A    between atoms: _307  and  _310
REMARK  119  A    between atoms: _310  and  _311
REMARK  120  A    between atoms: _313  and  _315
REMARK  121  A    between atoms: _315  and  _316
REMARK  122  A    between atoms: _315  and  _318
REMARK  123  A    between atoms: _318  and  _319
REMARK  124  A    between atoms: _319  and  _320
REMARK  125  A    between atoms: _320  and  _321
REMARK  126  A    between atoms: _321  and  _322
REMARK  127  A    between atoms: _326  and  _328
REMARK  128  A    between atoms: _328  and  _329
REMARK  129  A    between atoms: _328  and  _331
REMARK  130  A    between atoms: _331  and  _332
REMARK  131  A    between atoms: _334  and  _336
REMARK  132  A    between atoms: _336  and  _337
REMARK  133  A    between atoms: _339  and  _341
REMARK  134  A    between atoms: _341  and  _342
REMARK  135  A    between atoms: _341  and  _344
REMARK  136  A    between atoms: _344  and  _345
REMARK  137  A    between atoms: _350  and  _351
REMARK  138  A    between atoms: _353  and  _355
REMARK  139  A    between atoms: _355  and  _356
REMARK  140  A    between atoms: _355  and  _358
REMARK  141  A    between atoms: _361  and  _363
REMARK  142  A    between atoms: _363  and  _364
REMARK  143  A    between atoms: _366  and  _368
REMARK  144  A    between atoms: _368  and  _369
REMARK  145  A    between atoms: _368  and  _371
REMARK  146  A    between atoms: _371  and  _372
REMARK  147  A    between atoms: _377  and  _379
REMARK  148  A    between atoms: _379  and  _380
REMARK  149  A    between atoms: _383  and  _385
REMARK  150  A    between atoms: _385  and  _386
REMARK  151  A    between atoms: _385  and  _388
REMARK  152  A    between atoms: _388  and  _389
REMARK  153  A    between atoms: _394  and  _396
REMARK  154  A    between atoms: _396  and  _397
REMARK  155  A    between atoms: _396  and  _399
REMARK  156  A    between atoms: _399  and  _400
REMARK  157  A    between atoms: _400  and  _401
REMARK  158  A    between atoms: _401  and  _402
REMARK  159  A    between atoms: _402  and  CA_598
REMARK  160  A    between atoms: _404  and  _406
REMARK  161  A    between atoms: _406  and  _407
REMARK  162  A    between atoms: _406  and  _409
REMARK  163  A    between atoms: _409  and  _410
REMARK  164  A    between atoms: _410  and  _411
REMARK  165  A    between atoms: _414  and  _416
REMARK  166  A    between atoms: _416  and  _417
REMARK  167  A    between atoms: _416  and  _419
REMARK  168  A    between atoms: _419  and  _420
REMARK  169  A    between atoms: _422  and  _424
REMARK  170  A    between atoms: _424  and  _425
REMARK  171  A    between atoms: _428  and  _430
REMARK  172  A    between atoms: _430  and  _431
REMARK  173  A    between atoms: _430  and  _433
REMARK  174  A    between atoms: _433  and  _434
REMARK  175  A    between atoms: _434  and  _435
REMARK  176  A    between atoms: _435  and  _436
REMARK  177  A    between atoms: _445  and  _447
REMARK  178  A    between atoms: _447  and  _448
REMARK  179  A    between atoms: _450  and  _452
REMARK  180  A    between atoms: _452  and  _453
REMARK  181  A    between atoms: _452  and  _455
REMARK  182  A    between atoms: _455  and  _456
REMARK  183  A    between atoms: _459  and  _461
REMARK  184  A    between atoms: _461  and  _462
REMARK  185  A    between atoms: _461  and  _464
REMARK  186  A    between atoms: _464  and  _465
REMARK  187  A    between atoms: _465  and  _466
REMARK  188  A    between atoms: _469  and  _471
REMARK  189  A    between atoms: _471  and  _472
REMARK  190  A    between atoms: _471  and  _474
REMARK  191  A    between atoms: _474  and  _475
REMARK  192  A    between atoms: _480  and  _481
REMARK  193  A    between atoms: _483  and  _485
REMARK  194  A    between atoms: _485  and  _486
REMARK  195  A    between atoms: _485  and  _488
REMARK  196  A    between atoms: _488  and  _489
REMARK  197  A    between atoms: _489  and  _490
REMARK  198  A    between atoms: _493  and  _495
REMARK  199  A    between atoms: _495  and  _496
REMARK  200  A    between atoms: _495  and  _498
REMARK  201  A    between atoms: _498  and  _499
REMARK  202  A    between atoms: _501  and  _503
REMARK  203  A    between atoms: _503  and  _504
REMARK  204  A    between atoms: _503  and  _506
REMARK  205  A    between atoms: _506  and  _507
REMARK  206  A    between atoms: _513  and  _515
REMARK  207  A    between atoms: _515  and  _516
REMARK  208  A    between atoms: _518  and  _520
REMARK  209  A    between atoms: _520  and  _521
REMARK  210  A    between atoms: _523  and  _525
REMARK  211  A    between atoms: _525  and  _526
REMARK  212  A    between atoms: _525  and  _528
REMARK  213  A    between atoms: _528  and  _529
REMARK  214  A    between atoms: _532  and  _534
REMARK  215  A    between atoms: _534  and  _535
REMARK  216  A    between atoms: _534  and  _537
REMARK  217  A    between atoms: _537  and  _538
REMARK  218  A    between atoms: _541  and  _543
REMARK  219  A    between atoms: _543  and  _544
REMARK  220  A    between atoms: _547  and  _549
REMARK  221  A    between atoms: _549  and  _550
REMARK  222  A    between atoms: _549  and  _552
REMARK  223  A    between atoms: _552  and  _553
REMARK  224  A    between atoms: _558  and  _560
REMARK  225  A    between atoms: _560  and  _561
REMARK  226  A    between atoms: _560  and  _563
REMARK  227  A    between atoms: _563  and  _564
REMARK  228  A    between atoms: _569  and  _571
REMARK  229  A    between atoms: _571  and  _572
REMARK  230  A    between atoms: _571  and  _574
REMARK  231  A    between atoms: _574  and  _575
REMARK  232  A    between atoms: _577  and  _579
REMARK  233  A    between atoms: _579  and  _580
REMARK  234  A    between atoms: _579  and  _582
REMARK  235  A    between atoms: _582  and  _583
REMARK  236  A    between atoms: _583  and  _584
REMARK  237  A    between atoms: _589  and  _591
REMARK  238  A    between atoms: _591  and  _592
REMARK  239  A    between atoms: _591  and  _594
REMARK  240  A    between atoms: _594  and  _595
REMARK  241  A    between atoms: _595  and  _596
REMARK                            x       y       z     vdW  Elec       q    Type
REMARK                         _______ _______ _______ _____ _____    ______ ____
ROOT
ATOM      1  CA  GLU A   7      28.327  52.578  29.267  0.00  0.00    +0.149 C 
ENDROOT
BRANCH   1   2
ATOM      2  C   GLU A   7      27.658  53.953  29.188  0.00  0.00    +0.241 C 
ATOM      3  O   GLU A   7      26.483  54.092  29.527  0.00  0.00    -0.273 OA
ATOM      4  N   TYR A   8      28.392  54.964  28.727  0.00  0.00    -0.297 N 
ATOM      5  H   TYR A   8      29.375  54.796  28.433  0.00  0.00    +0.150 HD
BRANCH   4   6
ATOM      6  CA  TYR A   8      27.825  56.307  28.631  0.00  0.00    +0.153 C 
BRANCH   6   7
ATOM      7  C   TYR A   8      26.786  56.458  27.522  0.00  0.00    +0.241 C 
ATOM      8  O   TYR A   8      26.077  57.461  27.466  0.00  0.00    -0.273 OA
ATOM      9  N   GLU A   9      26.685  55.458  26.649  0.00  0.00    -0.297 N 
ATOM     10  H   GLU A   9      27.326  54.643  26.722  0.00  0.00    +0.150 HD
BRANCH   9  11
ATOM     11  CA  GLU A   9      25.680  55.497  25.589  0.00  0.00    +0.149 C 
BRANCH  11  12
ATOM     12  C   GLU A   9      24.334  55.263  26.275  0.00  0.00    +0.241 C 
ATOM     13  N   SER A  10      24.400  54.843  27.537  0.00  0.00    -0.295 N 
ATOM     14  H   SER A  10      25.337  54.688  27.961  0.00  0.00    +0.150 HD
ATOM     15  O   GLU A   9      23.274  55.451  25.680  0.00  0.00    -0.273 OA
BRANCH  13  16
ATOM     16  CA  SER A  10      23.215  54.590  28.351  0.00  0.00    +0.178 C 
BRANCH  16  17
ATOM     17  C   SER A  10      23.008  55.758  29.315  0.00  0.00    +0.243 C 
ATOM     18  O   SER A  10      21.958  55.880  29.948  0.00  0.00    -0.273 OA
ATOM     19  N   PHE A  11      24.022  56.617  29.412  0.00  0.00    -0.297 N 
ATOM     20  H   PHE A  11      24.869  56.455  28.831  0.00  0.00    +0.150 HD
BRANCH  19  21
ATOM     21  CA  PHE A  11      23.993  57.777  30.301  0.00  0.00    +0.153 C 
BRANCH  21  22
ATOM     22  C   PHE A  11      23.793  59.076  29.518  0.00  0.00    +0.241 C 
ATOM     23  O   PHE A  11      24.269  60.136  29.927  0.00  0.00    -0.273 OA
ATOM     24  N   GLY A  12      23.091  58.992  28.393  0.00  0.00    -0.295 N 
ATOM     25  H   GLY A  12      22.712  58.073  28.086  0.00  0.00    +0.150 HD
BRANCH  24  26
ATOM     26  CA  GLY A  12      22.851  60.178  27.591  0.00  0.00    +0.176 C 
BRANCH  26  27
ATOM     27  C   GLY A  12      23.420  60.045  26.194  0.00  0.00    +0.243 C 
ATOM     28  N   GLY A  13      24.416  59.172  26.054  0.00  0.00    -0.296 N 
ATOM     29  H   GLY A  13      24.749  58.646  26.887  0.00  0.00    +0.150 HD
ATOM     30  O   GLY A  12      22.969  60.724  25.265  0.00  0.00    -0.273 OA
BRANCH  28  31
ATOM     31  CA  GLY A  13      25.049  58.936  24.770  0.00  0.00    +0.163 C 
BRANCH  31  32
ATOM     32  C   GLY A  13      26.443  59.523  24.629  0.00  0.00    +0.229 C 
ATOM     33  O   GLY A  13      26.821  60.428  25.377  0.00  0.00    -0.286 OA
ENDBRANCH  31  32
ENDBRANCH  28  31
ENDBRANCH  26  27
ENDBRANCH  24  26
ENDBRANCH  21  22
BRANCH  21  34
ATOM     34  CB  PHE A  11      25.310  57.865  31.087  0.00  0.00    +0.055 C 
BRANCH  34  35
ATOM     35  CG  PHE A  11      25.626  56.641  31.909  0.00  0.00    -0.020 A 
ATOM     36  CD2 PHE A  11      24.620  55.781  32.338  0.00  0.00    -0.004 A 
ATOM     37  CE2 PHE A  11      24.918  54.657  33.112  0.00  0.00    -0.000 A 
ATOM     38  CZ  PHE A  11      26.239  54.385  33.465  0.00  0.00    -0.000 A 
ATOM     39  CE1 PHE A  11      27.253  55.238  33.043  0.00  0.00    -0.000 A 
ATOM     40  CD1 PHE A  11      26.943  56.359  32.269  0.00  0.00    -0.004 A 
ENDBRANCH  34  35
ENDBRANCH  21  34
ENDBRANCH  19  21
ENDBRANCH  16  17
BRANCH  16  41
ATOM     41  CB  SER A  10      23.395  53.291  29.148  0.00  0.00    +0.166 C 
BRANCH  41  42
ATOM     42  OG  SER A  10      22.327  53.089  30.060  0.00  0.00    -0.380 OA
ATOM     43  H   SER A  10      22.291  53.846  30.697  0.00  0.00    +0.211 HD
ENDBRANCH  41  42
ENDBRANCH  16  41
ENDBRANCH  13  16
ENDBRANCH  11  12
BRANCH  11  44
ATOM     44  CB  GLU A   9      25.932  54.397  24.554  0.00  0.00    +0.041 C 
BRANCH  44  45
ATOM     45  CG  GLU A   9      27.216  54.553  23.740  0.00  0.00    +0.116 C 
BRANCH  45  46
ATOM     46  CD  GLU A   9      27.127  55.610  22.645  0.00  0.00    +0.365 C 
ATOM     47  OE2 GLU A   9      26.144  56.383  22.612  0.00  0.00    -0.246 OA
ATOM     48  OE1 GLU A   9      28.055  55.667  21.813  0.00  0.00    -0.246 OA
ENDBRANCH  45  46
ENDBRANCH  44  45
ENDBRANCH  11  44
ENDBRANCH   9  11
ENDBRANCH   6   7
BRANCH   6  49
ATOM     49  CB  TYR A   8      28.942  57.352  28.498  0.00  0.00    +0.055 C 
BRANCH  49  50
ATOM     50  CG  TYR A   8      29.525  57.736  29.845  0.00  0.00    -0.020 A 
ATOM     51  CD2 TYR A   8      28.970  58.773  30.596  0.00  0.00    -0.001 A 
ATOM     52  CE2 TYR A   8      29.444  59.080  31.870  0.00  0.00    +0.036 A 
ATOM     53  CZ  TYR A   8      30.487  58.340  32.409  0.00  0.00    +0.134 A 
ATOM     54  CE1 TYR A   8      31.060  57.308  31.686  0.00  0.00    +0.036 A 
ATOM     55  CD1 TYR A   8      30.580  57.013  30.405  0.00  0.00    -0.001 A 
BRANCH  53  56
ATOM     56  OH  TYR A   8      30.939  58.628  33.675  0.00  0.00    -0.506 OA
ATOM     57  HH  TYR A   8      30.423  59.388  34.044  0.00  0.00    +0.292 HD
ENDBRANCH  53  56
ENDBRANCH  49  50
ENDBRANCH   6  49
ENDBRANCH   4   6
ENDBRANCH   1   2
BRANCH   1  59
ATOM     58  C   THR A   6      28.835  52.555  26.909  0.00  0.00    +0.243 C 
ATOM     59  N   GLU A   7      29.251  52.379  28.159  0.00  0.00    -0.297 N 
ATOM     60  H   GLU A   7      30.235  52.100  28.346  0.00  0.00    +0.150 HD
ATOM     61  O   THR A   6      27.677  52.882  26.639  0.00  0.00    -0.273 OA
BRANCH  58  62
ATOM     62  CA  THR A   6      29.860  52.344  25.799  0.00  0.00    +0.176 C 
BRANCH  62  65
ATOM     63  C   GLY A   5      31.590  53.805  26.705  0.00  0.00    +0.243 C 
ATOM     64  O   GLY A   5      30.809  54.751  26.815  0.00  0.00    -0.273 OA
ATOM     65  N   THR A   6      31.226  52.614  26.239  0.00  0.00    -0.295 N 
ATOM     66  H   THR A   6      31.934  51.854  26.186  0.00  0.00    +0.150 HD
BRANCH  63  67
ATOM     67  CA  GLY A   5      33.046  53.942  27.111  0.00  0.00    +0.176 C 
BRANCH  67  69
ATOM     68  C   ARG A   4      34.004  56.165  27.209  0.00  0.00    +0.241 C 
ATOM     69  N   GLY A   5      33.394  55.158  27.831  0.00  0.00    -0.295 N 
ATOM     70  H   GLY A   5      33.164  55.241  28.842  0.00  0.00    +0.150 HD
ATOM     71  O   ARG A   4      34.290  56.140  26.013  0.00  0.00    -0.273 OA
BRANCH  68  72
ATOM     72  CA  ARG A   4      34.352  57.379  28.067  0.00  0.00    +0.149 C 
BRANCH  72  75
ATOM     73  C   ALA A   3      36.523  56.733  28.949  0.00  0.00    +0.241 C 
ATOM     74  O   ALA A   3      36.019  55.881  29.680  0.00  0.00    -0.273 OA
ATOM     75  N   ARG A   4      35.805  57.501  28.137  0.00  0.00    -0.297 N 
ATOM     76  H   ARG A   4      36.287  58.203  27.540  0.00  0.00    +0.150 HD
BRANCH  73  77
ATOM     77  CA  ALA A   3      38.035  56.944  28.955  0.00  0.00    +0.149 C 
ATOM     78  CB  ALA A   3      38.640  56.535  27.603  0.00  0.00    +0.031 C 
BRANCH  77  80
ATOM     79  C   SER A   2      39.798  55.971  30.381  0.00  0.00    +0.243 C 
ATOM     80  N   ALA A   3      38.524  56.081  30.024  0.00  0.00    -0.297 N 
ATOM     81  H   ALA A   3      37.826  55.512  30.543  0.00  0.00    +0.150 HD
ATOM     82  O   SER A   2      40.727  56.586  29.839  0.00  0.00    -0.273 OA
BRANCH  79  83
ATOM     83  CA  SER A   2      40.055  55.012  31.533  0.00  0.00    +0.178 C 
BRANCH  83  85
ATOM     84  C   GLU A   1      39.270  52.994  30.396  0.00  0.00    +0.238 C 
ATOM     85  N   SER A   2      39.288  53.769  31.476  0.00  0.00    -0.295 N 
ATOM     86  H   SER A   2      38.737  53.481  32.310  0.00  0.00    +0.150 HD
ATOM     87  O   GLU A   1      39.854  53.279  29.351  0.00  0.00    -0.274 OA
BRANCH  84  88
ATOM     88  CA  GLU A   1      38.507  51.680  30.521  0.00  0.00    +0.145 C 
BRANCH  88  89
ATOM     89  N   GLU A   1      39.567  50.944  31.183  0.00  0.00    -0.238 NA
ATOM     90  H   GLU A   1      39.701  51.032  32.211  0.00  0.00    +0.142 HD
ENDBRANCH  88  89
BRANCH  88  91
ATOM     91  CB  GLU A   1      37.280  51.824  31.416  0.00  0.00    +0.038 C 
BRANCH  91  92
ATOM     92  CG  GLU A   1      36.132  52.540  30.727  0.00  0.00    +0.116 C 
BRANCH  92  93
ATOM     93  CD  GLU A   1      34.856  52.499  31.535  0.00  0.00    +0.365 C 
ATOM     94  OE2 GLU A   1      34.849  53.032  32.663  0.00  0.00    -0.246 OA
ATOM     95  OE1 GLU A   1      33.860  51.926  31.040  0.00  0.00    -0.246 OA
ENDBRANCH  92  93
ENDBRANCH  91  92
ENDBRANCH  88  91
ENDBRANCH  84  88
ENDBRANCH  83  85
BRANCH  83  96
ATOM     96  CB  SER A   2      41.541  54.657  31.597  0.00  0.00    +0.166 C 
BRANCH  96  97
ATOM     97  OG  SER A   2      41.760  53.676  32.597  0.00  0.00    -0.380 OA
ATOM     98  H   SER A   2      41.470  54.031  33.475  0.00  0.00    +0.211 HD
ENDBRANCH  96  97
ENDBRANCH  83  96
ENDBRANCH  79  83
ENDBRANCH  77  80
ENDBRANCH  73  77
ENDBRANCH  72  75
BRANCH  72  99
ATOM     99  CB  ARG A   4      33.757  58.657  27.466  0.00  0.00    +0.033 C 
BRANCH  99 100
ATOM    100  CG  ARG A   4      32.242  58.802  27.605  0.00  0.00    +0.045 C 
BRANCH 100 101
ATOM    101  CD  ARG A   4      31.783  60.094  26.934  0.00  0.00    +0.174 C 
BRANCH 101 102
ATOM    102  NE  ARG A   4      30.338  60.302  26.999  0.00  0.00    -0.265 N 
ATOM    103  CZ  ARG A   4      29.703  60.962  27.964  0.00  0.00    +0.342 C 
ATOM    104  NH2 ARG A   4      30.373  61.500  28.978  0.00  0.00    -0.292 N 
ATOM    105 HH21 ARG A   4      29.862  62.013  29.725  0.00  0.00    +0.255 HD
ATOM    106 HH22 ARG A   4      31.408  61.408  29.025  0.00  0.00    +0.255 HD
ATOM    107  NH1 ARG A   4      28.382  61.089  27.911  0.00  0.00    -0.292 N 
ATOM    108 HH11 ARG A   4      27.879  61.604  28.662  0.00  0.00    +0.255 HD
ATOM    109 HH12 ARG A   4      27.851  60.674  27.119  0.00  0.00    +0.255 HD
ATOM    110  HE  ARG A   4      29.761  59.903  26.231  0.00  0.00    +0.259 HD
ENDBRANCH 101 102
ENDBRANCH 100 101
ENDBRANCH  99 100
ENDBRANCH  72  99
ENDBRANCH  68  72
ENDBRANCH  67  69
ENDBRANCH  63  67
ENDBRANCH  62  65
BRANCH  62 111
ATOM    111  CB  THR A   6      29.743  50.908  25.245  0.00  0.00    +0.137 C 
ATOM    112  CG2 THR A   6      28.289  50.546  24.957  0.00  0.00    +0.034 C 
BRANCH 111 113
ATOM    113  OG1 THR A   6      30.497  50.811  24.030  0.00  0.00    -0.382 OA
ATOM    114  HG1 THR A   6      31.447  51.021  24.215  0.00  0.00    +0.210 HD
ENDBRANCH 111 113
ENDBRANCH  62 111
ENDBRANCH  58  62
ENDBRANCH   1  59
BRANCH   1 115
ATOM    115  CB  GLU A   7      29.050  52.423  30.611  0.00  0.00    +0.041 C 
BRANCH 115 116
ATOM    116  CG  GLU A   7      30.126  53.471  30.897  0.00  0.00    +0.116 C 
BRANCH 116 117
ATOM    117  CD  GLU A   7      30.924  53.138  32.145  0.00  0.00    +0.365 C 
ATOM    118  OE2 GLU A   7      30.703  52.042  32.695  0.00  0.00    -0.246 OA
ATOM    119  OE1 GLU A   7      31.771  53.952  32.578  0.00  0.00    -0.246 OA
ENDBRANCH 116 117
ENDBRANCH 115 116
ENDBRANCH   1 115
TORSDOF 50
REMARK  Name = ../refined-set-2016/2zq0/2zq0_pocket.pdb
REMARK  241 active torsions:
REMARK  status: ('A' for Active; 'I' for Inactive)
REMARK    1  A    between atoms: _1  and  _3
REMARK    2  A    between atoms: _3  and  _4
REMARK    3  A    between atoms: _3  and  _6
REMARK    4  A    between atoms: _6  and  _7
REMARK    5  A    between atoms: _10  and  _12
REMARK    6  A    between atoms: _12  and  _13
REMARK    7  A    between atoms: _12  and  _15
REMARK    8  A    between atoms: _15  and  _16
REMARK    9  A    between atoms: _16  and  _17
REMARK   10  A    between atoms: _22  and  _24
REMARK   11  A    between atoms: _24  and  _25
REMARK   12  A    between atoms: _24  and  _27
REMARK   13  A    between atoms: _27  and  _28
REMARK   14  A    between atoms: _28  and  _29
REMARK   15  A    between atoms: _29  and  _31
REMARK   16  A    between atoms: _31  and  CA_598
REMARK   17  A    between atoms: _32  and  _34
REMARK   18  A    between atoms: _34  and  _35
REMARK   19  A    between atoms: _34  and  _37
REMARK   20  A    between atoms: _37  and  _38
REMARK   21  A    between atoms: _42  and  _43
REMARK   22  A    between atoms: _48  and  _50
REMARK   23  A    between atoms: _50  and  _51
REMARK   24  A    between atoms: _50  and  _53
REMARK   25  A    between atoms: _53  and  _54
REMARK   26  A    between atoms: _59  and  _61
REMARK   27  A    between atoms: _61  and  _62
REMARK   28  A    between atoms: _61  and  _64
REMARK   29  A    between atoms: _64  and  _65
REMARK   30  A    between atoms: _67  and  _69
REMARK   31  A    between atoms: _69  and  _70
REMARK   32  A    between atoms: _69  and  _72
REMARK   33  A    between atoms: _72  and  _73
REMARK   34  A    between atoms: _75  and  _77
REMARK   35  A    between atoms: _77  and  _78
REMARK   36  A    between atoms: _77  and  _80
REMARK   37  A    between atoms: _80  and  _81
REMARK   38  A    between atoms: _81  and  _82
REMARK   39  A    between atoms: _87  and  _89
REMARK   40  A    between atoms: _89  and  _90
REMARK   41  A    between atoms: _89  and  _92
REMARK   42  A    between atoms: _92  and  _93
REMARK   43  A    between atoms: _98  and  _99
REMARK   44  A    between atoms: _101  and  _103
REMARK   45  A    between atoms: _103  and  _104
REMARK   46  A    between atoms: _103  and  _106
REMARK   47  A    between atoms: _109  and  _111
REMARK   48  A    between atoms: _111  and  _112
REMARK   49  A    between atoms: _111  and  _114
REMARK   50  A    between atoms: _114  and  _115
REMARK   51  A    between atoms: _125  and  _127
REMARK   52  A    between atoms: _127  and  _128
REMARK   53  A    between atoms: _127  and  _130
REMARK   54  A    between atoms: _130  and  _131
REMARK   55  A    between atoms: _141  and  _143
REMARK   56  A    between atoms: _143  and  _144
REMARK   57  A    between atoms: _143  and  _146
REMARK   58  A    between atoms: _146  and  _147
REMARK   59  A    between atoms: _147  and  _148
REMARK   60  A    between atoms: _150  and  _152
REMARK   61  A    between atoms: _152  and  _153
REMARK   62  A    between atoms: _152  and  _155
REMARK   63  A    between atoms: _155  and  _156
REMARK   64  A    between atoms: _159  and  _161
REMARK   65  A    between atoms: _161  and  _162
REMARK   66  A    between atoms: _161  and  _164
REMARK   67  A    between atoms: _164  and  _165
REMARK   68  A    between atoms: _168  and  _170
REMARK   69  A    between atoms: _170  and  _171
REMARK   70  A    between atoms: _170  and  _173
REMARK   71  A    between atoms: _173  and  _174
REMARK   72  A    between atoms: _184  and  _186
REMARK   73  A    between atoms: _186  and  _187
REMARK   74  A    between atoms: _186  and  _189
REMARK   75  A    between atoms: _189  and  _190
REMARK   76  A    between atoms: _193  and  _195
REMARK   77  A    between atoms: _195  and  _196
REMARK   78  A    between atoms: _195  and  _198
REMARK   79  A    between atoms: _198  and  _199
REMARK   80  A    between atoms: _199  and  _200
REMARK   81  A    between atoms: _203  and  _205
REMARK   82  A    between atoms: _205  and  _206
REMARK   83  A    between atoms: _208  and  _210
REMARK   84  A    between atoms: _210  and  _211
REMARK   85  A    between atoms: _210  and  _213
REMARK   86  A    between atoms: _213  and  _214
REMARK   87  A    between atoms: _224  and  _226
REMARK   88  A    between atoms: _226  and  _227
REMARK   89  A    between atoms: _226  and  _229
REMARK   90  A    between atoms: _229  and  _230
REMARK   91  A    between atoms: _240  and  _242
REMARK   92  A    between atoms: _242  and  _243
REMARK   93  A    between atoms: _242  and  _245
REMARK   94  A    between atoms: _245  and  _246
REMARK   95  A    between atoms: _252  and  _254
REMARK   96  A    between atoms: _254  and  _255
REMARK   97  A    between atoms: _254  and  _257
REMARK   98  A    between atoms: _257  and  _258
REMARK   99  A    between atoms: _264  and  _266
REMARK  100  A    between atoms: _266  and  _267
REMARK  101  A    between atoms: _266  and  _269
REMARK  102  A    between atoms: _269  and  _270
REMARK  103  A    between atoms: _275  and  _277
REMARK  104  A    between atoms: _277  and  _278
REMARK  105  A    between atoms: _277  and  _280
REMARK  106  A    between atoms: _280  and  _281
REMARK  107  A    between atoms: _286  and  _288
REMARK  108  A    between atoms: _288  and  _289
REMARK  109  A    between atoms: _288  and  _291
REMARK  110  A    between atoms: _291  and  _292
REMARK  111  A    between atoms: _292  and  _293
REMARK  112  A    between atoms: _296  and  _298
REMARK  113  A    between atoms: _298  and  _299
REMARK  114  A    between atoms: _298  and  _301
REMARK  115  A    between atoms: _301  and  _302
REMARK  116  A    between atoms: _305  and  _307
REMARK  117  A    between atoms: _307  and  _308
REMARK  118  A    between atoms: _307  and  _310
REMARK  119  A    between atoms: _310  and  _311
REMARK  120  A    between atoms: _313  and  _315
REMARK  121  A    between atoms: _315  and  _316
REMARK  122  A    between atoms: _315  and  _318
REMARK  123  A    between atoms: _318  and  _319
REMARK  124  A    between atoms: _319  and  _320
REMARK  125  A    between atoms: _320  and  _321
REMARK  126  A    between atoms: _321  and  _322
REMARK  127  A    between atoms: _326  and  _328
REMARK  128  A    between atoms: _328  and  _329
REMARK  129  A    between atoms: _328  and  _331
REMARK  130  A    between atoms: _331  and  _332
REMARK  131  A    between atoms: _334  and  _336
REMARK  132  A    between atoms: _336  and  _337
REMARK  133  A    between atoms: _339  and  _341
REMARK  134  A    between atoms: _341  and  _342
REMARK  135  A    between atoms: _341  and  _344
REMARK  136  A    between atoms: _344  and  _345
REMARK  137  A    between atoms: _350  and  _351
REMARK  138  A    between atoms: _353  and  _355
REMARK  139  A    between atoms: _355  and  _356
REMARK  140  A    between atoms: _355  and  _358
REMARK  141  A    between atoms: _361  and  _363
REMARK  142  A    between atoms: _363  and  _364
REMARK  143  A    between atoms: _366  and  _368
REMARK  144  A    between atoms: _368  and  _369
REMARK  145  A    between atoms: _368  and  _371
REMARK  146  A    between atoms: _371  and  _372
REMARK  147  A    between atoms: _377  and  _379
REMARK  148  A    between atoms: _379  and  _380
REMARK  149  A    between atoms: _383  and  _385
REMARK  150  A    between atoms: _385  and  _386
REMARK  151  A    between atoms: _385  and  _388
REMARK  152  A    between atoms: _388  and  _389
REMARK  153  A    between atoms: _394  and  _396
REMARK  154  A    between atoms: _396  and  _397
REMARK  155  A    between atoms: _396  and  _399
REMARK  156  A    between atoms: _399  and  _400
REMARK  157  A    between atoms: _400  and  _401
REMARK  158  A    between atoms: _401  and  _402
REMARK  159  A    between atoms: _402  and  CA_598
REMARK  160  A    between atoms: _404  and  _406
REMARK  161  A    between atoms: _406  and  _407
REMARK  162  A    between atoms: _406  and  _409
REMARK  163  A    between atoms: _409  and  _410
REMARK  164  A    between atoms: _410  and  _411
REMARK  165  A    between atoms: _414  and  _416
REMARK  166  A    between atoms: _416  and  _417
REMARK  167  A    between atoms: _416  and  _419
REMARK  168  A    between atoms: _419  and  _420
REMARK  169  A    between atoms: _422  and  _424
REMARK  170  A    between atoms: _424  and  _425
REMARK  171  A    between atoms: _428  and  _430
REMARK  172  A    between atoms: _430  and  _431
REMARK  173  A    between atoms: _430  and  _433
REMARK  174  A    between atoms: _433  and  _434
REMARK  175  A    between atoms: _434  and  _435
REMARK  176  A    between atoms: _435  and  _436
REMARK  177  A    between atoms: _445  and  _447
REMARK  178  A    between atoms: _447  and  _448
REMARK  179  A    between atoms: _450  and  _452
REMARK  180  A    between atoms: _452  and  _453
REMARK  181  A    between atoms: _452  and  _455
REMARK  182  A    between atoms: _455  and  _456
REMARK  183  A    between atoms: _459  and  _461
REMARK  184  A    between atoms: _461  and  _462
REMARK  185  A    between atoms: _461  and  _464
REMARK  186  A    between atoms: _464  and  _465
REMARK  187  A    between atoms: _465  and  _466
REMARK  188  A    between atoms: _469  and  _471
REMARK  189  A    between atoms: _471  and  _472
REMARK  190  A    between atoms: _471  and  _474
REMARK  191  A    between atoms: _474  and  _475
REMARK  192  A    between atoms: _480  and  _481
REMARK  193  A    between atoms: _483  and  _485
REMARK  194  A    between atoms: _485  and  _486
REMARK  195  A    between atoms: _485  and  _488
REMARK  196  A    between atoms: _488  and  _489
REMARK  197  A    between atoms: _489  and  _490
REMARK  198  A    between atoms: _493  and  _495
REMARK  199  A    between atoms: _495  and  _496
REMARK  200  A    between atoms: _495  and  _498
REMARK  201  A    between atoms: _498  and  _499
REMARK  202  A    between atoms: _501  and  _503
REMARK  203  A    between atoms: _503  and  _504
REMARK  204  A    between atoms: _503  and  _506
REMARK  205  A    between atoms: _506  and  _507
REMARK  206  A    between atoms: _513  and  _515
REMARK  207  A    between atoms: _515  and  _516
REMARK  208  A    between atoms: _518  and  _520
REMARK  209  A    between atoms: _520  and  _521
REMARK  210  A    between atoms: _523  and  _525
REMARK  211  A    between atoms: _525  and  _526
REMARK  212  A    between atoms: _525  and  _528
REMARK  213  A    between atoms: _528  and  _529
REMARK  214  A    between atoms: _532  and  _534
REMARK  215  A    between atoms: _534  and  _535
REMARK  216  A    between atoms: _534  and  _537
REMARK  217  A    between atoms: _537  and  _538
REMARK  218  A    between atoms: _541  and  _543
REMARK  219  A    between atoms: _543  and  _544
REMARK  220  A    between atoms: _547  and  _549
REMARK  221  A    between atoms: _549  and  _550
REMARK  222  A    between atoms: _549  and  _552
REMARK  223  A    between atoms: _552  and  _553
REMARK  224  A    between atoms: _558  and  _560
REMARK  225  A    between atoms: _560  and  _561
REMARK  226  A    between atoms: _560  and  _563
REMARK  227  A    between atoms: _563  and  _564
REMARK  228  A    between atoms: _569  and  _571
REMARK  229  A    between atoms: _571  and  _572
REMARK  230  A    between atoms: _571  and  _574
REMARK  231  A    between atoms: _574  and  _575
REMARK  232  A    between atoms: _577  and  _579
REMARK  233  A    between atoms: _579  and  _580
REMARK  234  A    between atoms: _579  and  _582
REMARK  235  A    between atoms: _582  and  _583
REMARK  236  A    between atoms: _583  and  _584
REMARK  237  A    between atoms: _589  and  _591
REMARK  238  A    between atoms: _591  and  _592
REMARK  239  A    between atoms: _591  and  _594
REMARK  240  A    between atoms: _594  and  _595
REMARK  241  A    between atoms: _595  and  _596
REMARK                            x       y       z     vdW  Elec       q    Type
REMARK                         _______ _______ _______ _____ _____    ______ ____
ROOT
ATOM      1  CA  ASP A   1      37.573  47.636  27.354  0.00  0.00    +0.144 C 
ENDROOT
BRANCH   1   2
ATOM      2  N   ASP A   1      38.707  48.543  27.177  0.00  0.00    -0.239 NA
ATOM      3  H   ASP A   1      39.065  49.059  28.006  0.00  0.00    +0.142 HD
ENDBRANCH   1   2
BRANCH   1   4
ATOM      4  C   ASP A   1      36.393  48.569  27.080  0.00  0.00    +0.225 C 
ATOM      5  O   ASP A   1      35.773  49.098  28.003  0.00  0.00    -0.287 OA
ENDBRANCH   1   4
BRANCH   1   6
ATOM      6  CB  ASP A   1      37.539  47.137  28.801  0.00  0.00    +0.139 C 
BRANCH   6   7
ATOM      7  CG  ASP A   1      36.373  46.209  29.081  0.00  0.00    +0.367 C 
ATOM      8  OD2 ASP A   1      35.853  46.249  30.215  0.00  0.00    -0.246 OA
ATOM      9  OD1 ASP A   1      35.986  45.437  28.180  0.00  0.00    -0.246 OA
ENDBRANCH   6   7
ENDBRANCH   1   6
TORSDOF 4
REMARK  Name = ../refined-set-2016/2zq0/2zq0_pocket.pdb
REMARK  241 active torsions:
REMARK  status: ('A' for Active; 'I' for Inactive)
REMARK    1  A    between atoms: _1  and  _3
REMARK    2  A    between atoms: _3  and  _4
REMARK    3  A    between atoms: _3  and  _6
REMARK    4  A    between atoms: _6  and  _7
REMARK    5  A    between atoms: _10  and  _12
REMARK    6  A    between atoms: _12  and  _13
REMARK    7  A    between atoms: _12  and  _15
REMARK    8  A    between atoms: _15  and  _16
REMARK    9  A    between atoms: _16  and  _17
REMARK   10  A    between atoms: _22  and  _24
REMARK   11  A    between atoms: _24  and  _25
REMARK   12  A    between atoms: _24  and  _27
REMARK   13  A    between atoms: _27  and  _28
REMARK   14  A    between atoms: _28  and  _29
REMARK   15  A    between atoms: _29  and  _31
REMARK   16  A    between atoms: _31  and  CA_598
REMARK   17  A    between atoms: _32  and  _34
REMARK   18  A    between atoms: _34  and  _35
REMARK   19  A    between atoms: _34  and  _37
REMARK   20  A    between atoms: _37  and  _38
REMARK   21  A    between atoms: _42  and  _43
REMARK   22  A    between atoms: _48  and  _50
REMARK   23  A    between atoms: _50  and  _51
REMARK   24  A    between atoms: _50  and  _53
REMARK   25  A    between atoms: _53  and  _54
REMARK   26  A    between atoms: _59  and  _61
REMARK   27  A    between atoms: _61  and  _62
REMARK   28  A    between atoms: _61  and  _64
REMARK   29  A    between atoms: _64  and  _65
REMARK   30  A    between atoms: _67  and  _69
REMARK   31  A    between atoms: _69  and  _70
REMARK   32  A    between atoms: _69  and  _72
REMARK   33  A    between atoms: _72  and  _73
REMARK   34  A    between atoms: _75  and  _77
REMARK   35  A    between atoms: _77  and  _78
REMARK   36  A    between atoms: _77  and  _80
REMARK   37  A    between atoms: _80  and  _81
REMARK   38  A    between atoms: _81  and  _82
REMARK   39  A    between atoms: _87  and  _89
REMARK   40  A    between atoms: _89  and  _90
REMARK   41  A    between atoms: _89  and  _92
REMARK   42  A    between atoms: _92  and  _93
REMARK   43  A    between atoms: _98  and  _99
REMARK   44  A    between atoms: _101  and  _103
REMARK   45  A    between atoms: _103  and  _104
REMARK   46  A    between atoms: _103  and  _106
REMARK   47  A    between atoms: _109  and  _111
REMARK   48  A    between atoms: _111  and  _112
REMARK   49  A    between atoms: _111  and  _114
REMARK   50  A    between atoms: _114  and  _115
REMARK   51  A    between atoms: _125  and  _127
REMARK   52  A    between atoms: _127  and  _128
REMARK   53  A    between atoms: _127  and  _130
REMARK   54  A    between atoms: _130  and  _131
REMARK   55  A    between atoms: _141  and  _143
REMARK   56  A    between atoms: _143  and  _144
REMARK   57  A    between atoms: _143  and  _146
REMARK   58  A    between atoms: _146  and  _147
REMARK   59  A    between atoms: _147  and  _148
REMARK   60  A    between atoms: _150  and  _152
REMARK   61  A    between atoms: _152  and  _153
REMARK   62  A    between atoms: _152  and  _155
REMARK   63  A    between atoms: _155  and  _156
REMARK   64  A    between atoms: _159  and  _161
REMARK   65  A    between atoms: _161  and  _162
REMARK   66  A    between atoms: _161  and  _164
REMARK   67  A    between atoms: _164  and  _165
REMARK   68  A    between atoms: _168  and  _170
REMARK   69  A    between atoms: _170  and  _171
REMARK   70  A    between atoms: _170  and  _173
REMARK   71  A    between atoms: _173  and  _174
REMARK   72  A    between atoms: _184  and  _186
REMARK   73  A    between atoms: _186  and  _187
REMARK   74  A    between atoms: _186  and  _189
REMARK   75  A    between atoms: _189  and  _190
REMARK   76  A    between atoms: _193  and  _195
REMARK   77  A    between atoms: _195  and  _196
REMARK   78  A    between atoms: _195  and  _198
REMARK   79  A    between atoms: _198  and  _199
REMARK   80  A    between atoms: _199  and  _200
REMARK   81  A    between atoms: _203  and  _205
REMARK   82  A    between atoms: _205  and  _206
REMARK   83  A    between atoms: _208  and  _210
REMARK   84  A    between atoms: _210  and  _211
REMARK   85  A    between atoms: _210  and  _213
REMARK   86  A    between atoms: _213  and  _214
REMARK   87  A    between atoms: _224  and  _226
REMARK   88  A    between atoms: _226  and  _227
REMARK   89  A    between atoms: _226  and  _229
REMARK   90  A    between atoms: _229  and  _230
REMARK   91  A    between atoms: _240  and  _242
REMARK   92  A    between atoms: _242  and  _243
REMARK   93  A    between atoms: _242  and  _245
REMARK   94  A    between atoms: _245  and  _246
REMARK   95  A    between atoms: _252  and  _254
REMARK   96  A    between atoms: _254  and  _255
REMARK   97  A    between atoms: _254  and  _257
REMARK   98  A    between atoms: _257  and  _258
REMARK   99  A    between atoms: _264  and  _266
REMARK  100  A    between atoms: _266  and  _267
REMARK  101  A    between atoms: _266  and  _269
REMARK  102  A    between atoms: _269  and  _270
REMARK  103  A    between atoms: _275  and  _277
REMARK  104  A    between atoms: _277  and  _278
REMARK  105  A    between atoms: _277  and  _280
REMARK  106  A    between atoms: _280  and  _281
REMARK  107  A    between atoms: _286  and  _288
REMARK  108  A    between atoms: _288  and  _289
REMARK  109  A    between atoms: _288  and  _291
REMARK  110  A    between atoms: _291  and  _292
REMARK  111  A    between atoms: _292  and  _293
REMARK  112  A    between atoms: _296  and  _298
REMARK  113  A    between atoms: _298  and  _299
REMARK  114  A    between atoms: _298  and  _301
REMARK  115  A    between atoms: _301  and  _302
REMARK  116  A    between atoms: _305  and  _307
REMARK  117  A    between atoms: _307  and  _308
REMARK  118  A    between atoms: _307  and  _310
REMARK  119  A    between atoms: _310  and  _311
REMARK  120  A    between atoms: _313  and  _315
REMARK  121  A    between atoms: _315  and  _316
REMARK  122  A    between atoms: _315  and  _318
REMARK  123  A    between atoms: _318  and  _319
REMARK  124  A    between atoms: _319  and  _320
REMARK  125  A    between atoms: _320  and  _321
REMARK  126  A    between atoms: _321  and  _322
REMARK  127  A    between atoms: _326  and  _328
REMARK  128  A    between atoms: _328  and  _329
REMARK  129  A    between atoms: _328  and  _331
REMARK  130  A    between atoms: _331  and  _332
REMARK  131  A    between atoms: _334  and  _336
REMARK  132  A    between atoms: _336  and  _337
REMARK  133  A    between atoms: _339  and  _341
REMARK  134  A    between atoms: _341  and  _342
REMARK  135  A    between atoms: _341  and  _344
REMARK  136  A    between atoms: _344  and  _345
REMARK  137  A    between atoms: _350  and  _351
REMARK  138  A    between atoms: _353  and  _355
REMARK  139  A    between atoms: _355  and  _356
REMARK  140  A    between atoms: _355  and  _358
REMARK  141  A    between atoms: _361  and  _363
REMARK  142  A    between atoms: _363  and  _364
REMARK  143  A    between atoms: _366  and  _368
REMARK  144  A    between atoms: _368  and  _369
REMARK  145  A    between atoms: _368  and  _371
REMARK  146  A    between atoms: _371  and  _372
REMARK  147  A    between atoms: _377  and  _379
REMARK  148  A    between atoms: _379  and  _380
REMARK  149  A    between atoms: _383  and  _385
REMARK  150  A    between atoms: _385  and  _386
REMARK  151  A    between atoms: _385  and  _388
REMARK  152  A    between atoms: _388  and  _389
REMARK  153  A    between atoms: _394  and  _396
REMARK  154  A    between atoms: _396  and  _397
REMARK  155  A    between atoms: _396  and  _399
REMARK  156  A    between atoms: _399  and  _400
REMARK  157  A    between atoms: _400  and  _401
REMARK  158  A    between atoms: _401  and  _402
REMARK  159  A    between atoms: _402  and  CA_598
REMARK  160  A    between atoms: _404  and  _406
REMARK  161  A    between atoms: _406  and  _407
REMARK  162  A    between atoms: _406  and  _409
REMARK  163  A    between atoms: _409  and  _410
REMARK  164  A    between atoms: _410  and  _411
REMARK  165  A    between atoms: _414  and  _416
REMARK  166  A    between atoms: _416  and  _417
REMARK  167  A    between atoms: _416  and  _419
REMARK  168  A    between atoms: _419  and  _420
REMARK  169  A    between atoms: _422  and  _424
REMARK  170  A    between atoms: _424  and  _425
REMARK  171  A    between atoms: _428  and  _430
REMARK  172  A    between atoms: _430  and  _431
REMARK  173  A    between atoms: _430  and  _433
REMARK  174  A    between atoms: _433  and  _434
REMARK  175  A    between atoms: _434  and  _435
REMARK  176  A    between atoms: _435  and  _436
REMARK  177  A    between atoms: _445  and  _447
REMARK  178  A    between atoms: _447  and  _448
REMARK  179  A    between atoms: _450  and  _452
REMARK  180  A    between atoms: _452  and  _453
REMARK  181  A    between atoms: _452  and  _455
REMARK  182  A    between atoms: _455  and  _456
REMARK  183  A    between atoms: _459  and  _461
REMARK  184  A    between atoms: _461  and  _462
REMARK  185  A    between atoms: _461  and  _464
REMARK  186  A    between atoms: _464  and  _465
REMARK  187  A    between atoms: _465  and  _466
REMARK  188  A    between atoms: _469  and  _471
REMARK  189  A    between atoms: _471  and  _472
REMARK  190  A    between atoms: _471  and  _474
REMARK  191  A    between atoms: _474  and  _475
REMARK  192  A    between atoms: _480  and  _481
REMARK  193  A    between atoms: _483  and  _485
REMARK  194  A    between atoms: _485  and  _486
REMARK  195  A    between atoms: _485  and  _488
REMARK  196  A    between atoms: _488  and  _489
REMARK  197  A    between atoms: _489  and  _490
REMARK  198  A    between atoms: _493  and  _495
REMARK  199  A    between atoms: _495  and  _496
REMARK  200  A    between atoms: _495  and  _498
REMARK  201  A    between atoms: _498  and  _499
REMARK  202  A    between atoms: _501  and  _503
REMARK  203  A    between atoms: _503  and  _504
REMARK  204  A    between atoms: _503  and  _506
REMARK  205  A    between atoms: _506  and  _507
REMARK  206  A    between atoms: _513  and  _515
REMARK  207  A    between atoms: _515  and  _516
REMARK  208  A    between atoms: _518  and  _520
REMARK  209  A    between atoms: _520  and  _521
REMARK  210  A    between atoms: _523  and  _525
REMARK  211  A    between atoms: _525  and  _526
REMARK  212  A    between atoms: _525  and  _528
REMARK  213  A    between atoms: _528  and  _529
REMARK  214  A    between atoms: _532  and  _534
REMARK  215  A    between atoms: _534  and  _535
REMARK  216  A    between atoms: _534  and  _537
REMARK  217  A    between atoms: _537  and  _538
REMARK  218  A    between atoms: _541  and  _543
REMARK  219  A    between atoms: _543  and  _544
REMARK  220  A    between atoms: _547  and  _549
REMARK  221  A    between atoms: _549  and  _550
REMARK  222  A    between atoms: _549  and  _552
REMARK  223  A    between atoms: _552  and  _553
REMARK  224  A    between atoms: _558  and  _560
REMARK  225  A    between atoms: _560  and  _561
REMARK  226  A    between atoms: _560  and  _563
REMARK  227  A    between atoms: _563  and  _564
REMARK  228  A    between atoms: _569  and  _571
REMARK  229  A    between atoms: _571  and  _572
REMARK  230  A    between atoms: _571  and  _574
REMARK  231  A    between atoms: _574  and  _575
REMARK  232  A    between atoms: _577  and  _579
REMARK  233  A    between atoms: _579  and  _580
REMARK  234  A    between atoms: _579  and  _582
REMARK  235  A    between atoms: _582  and  _583
REMARK  236  A    between atoms: _583  and  _584
REMARK  237  A    between atoms: _589  and  _591
REMARK  238  A    between atoms: _591  and  _592
REMARK  239  A    between atoms: _591  and  _594
REMARK  240  A    between atoms: _594  and  _595
REMARK  241  A    between atoms: _595  and  _596
REMARK                            x       y       z     vdW  Elec       q    Type
REMARK                         _______ _______ _______ _____ _____    ______ ____
ROOT
ATOM      1  CA  THR A   1      32.301  47.008  25.613  0.00  0.00    +0.160 C 
ENDROOT
BRANCH   1   2
ATOM      2  N   THR A   1      33.553  47.783  25.562  0.00  0.00    -0.237 NA
ATOM      3  H   THR A   1      34.446  47.254  25.619  0.00  0.00    +0.142 HD
ENDBRANCH   1   2
BRANCH   1   4
ATOM      4  CB  THR A   1      31.566  47.111  26.997  0.00  0.00    +0.134 C 
ATOM      5  CG2 THR A   1      32.574  47.097  28.137  0.00  0.00    +0.034 C 
BRANCH   4   6
ATOM      6  OG1 THR A   1      30.770  48.300  27.063  0.00  0.00    -0.383 OA
ATOM      7  HG1 THR A   1      31.353  49.092  26.951  0.00  0.00    +0.210 HD
ENDBRANCH   4   6
ENDBRANCH   1   4
BRANCH   1   8
ATOM      8  C   THR A   1      31.312  47.337  24.489  0.00  0.00    +0.227 C 
ATOM      9  O   THR A   1      30.179  47.762  24.730  0.00  0.00    -0.287 OA
ENDBRANCH   1   8
TORSDOF 4
REMARK  Name = ../refined-set-2016/2zq0/2zq0_pocket.pdb
REMARK  241 active torsions:
REMARK  status: ('A' for Active; 'I' for Inactive)
REMARK    1  A    between atoms: _1  and  _3
REMARK    2  A    between atoms: _3  and  _4
REMARK    3  A    between atoms: _3  and  _6
REMARK    4  A    between atoms: _6  and  _7
REMARK    5  A    between atoms: _10  and  _12
REMARK    6  A    between atoms: _12  and  _13
REMARK    7  A    between atoms: _12  and  _15
REMARK    8  A    between atoms: _15  and  _16
REMARK    9  A    between atoms: _16  and  _17
REMARK   10  A    between atoms: _22  and  _24
REMARK   11  A    between atoms: _24  and  _25
REMARK   12  A    between atoms: _24  and  _27
REMARK   13  A    between atoms: _27  and  _28
REMARK   14  A    between atoms: _28  and  _29
REMARK   15  A    between atoms: _29  and  _31
REMARK   16  A    between atoms: _31  and  CA_598
REMARK   17  A    between atoms: _32  and  _34
REMARK   18  A    between atoms: _34  and  _35
REMARK   19  A    between atoms: _34  and  _37
REMARK   20  A    between atoms: _37  and  _38
REMARK   21  A    between atoms: _42  and  _43
REMARK   22  A    between atoms: _48  and  _50
REMARK   23  A    between atoms: _50  and  _51
REMARK   24  A    between atoms: _50  and  _53
REMARK   25  A    between atoms: _53  and  _54
REMARK   26  A    between atoms: _59  and  _61
REMARK   27  A    between atoms: _61  and  _62
REMARK   28  A    between atoms: _61  and  _64
REMARK   29  A    between atoms: _64  and  _65
REMARK   30  A    between atoms: _67  and  _69
REMARK   31  A    between atoms: _69  and  _70
REMARK   32  A    between atoms: _69  and  _72
REMARK   33  A    between atoms: _72  and  _73
REMARK   34  A    between atoms: _75  and  _77
REMARK   35  A    between atoms: _77  and  _78
REMARK   36  A    between atoms: _77  and  _80
REMARK   37  A    between atoms: _80  and  _81
REMARK   38  A    between atoms: _81  and  _82
REMARK   39  A    between atoms: _87  and  _89
REMARK   40  A    between atoms: _89  and  _90
REMARK   41  A    between atoms: _89  and  _92
REMARK   42  A    between atoms: _92  and  _93
REMARK   43  A    between atoms: _98  and  _99
REMARK   44  A    between atoms: _101  and  _103
REMARK   45  A    between atoms: _103  and  _104
REMARK   46  A    between atoms: _103  and  _106
REMARK   47  A    between atoms: _109  and  _111
REMARK   48  A    between atoms: _111  and  _112
REMARK   49  A    between atoms: _111  and  _114
REMARK   50  A    between atoms: _114  and  _115
REMARK   51  A    between atoms: _125  and  _127
REMARK   52  A    between atoms: _127  and  _128
REMARK   53  A    between atoms: _127  and  _130
REMARK   54  A    between atoms: _130  and  _131
REMARK   55  A    between atoms: _141  and  _143
REMARK   56  A    between atoms: _143  and  _144
REMARK   57  A    between atoms: _143  and  _146
REMARK   58  A    between atoms: _146  and  _147
REMARK   59  A    between atoms: _147  and  _148
REMARK   60  A    between atoms: _150  and  _152
REMARK   61  A    between atoms: _152  and  _153
REMARK   62  A    between atoms: _152  and  _155
REMARK   63  A    between atoms: _155  and  _156
REMARK   64  A    between atoms: _159  and  _161
REMARK   65  A    between atoms: _161  and  _162
REMARK   66  A    between atoms: _161  and  _164
REMARK   67  A    between atoms: _164  and  _165
REMARK   68  A    between atoms: _168  and  _170
REMARK   69  A    between atoms: _170  and  _171
REMARK   70  A    between atoms: _170  and  _173
REMARK   71  A    between atoms: _173  and  _174
REMARK   72  A    between atoms: _184  and  _186
REMARK   73  A    between atoms: _186  and  _187
REMARK   74  A    between atoms: _186  and  _189
REMARK   75  A    between atoms: _189  and  _190
REMARK   76  A    between atoms: _193  and  _195
REMARK   77  A    between atoms: _195  and  _196
REMARK   78  A    between atoms: _195  and  _198
REMARK   79  A    between atoms: _198  and  _199
REMARK   80  A    between atoms: _199  and  _200
REMARK   81  A    between atoms: _203  and  _205
REMARK   82  A    between atoms: _205  and  _206
REMARK   83  A    between atoms: _208  and  _210
REMARK   84  A    between atoms: _210  and  _211
REMARK   85  A    between atoms: _210  and  _213
REMARK   86  A    between atoms: _213  and  _214
REMARK   87  A    between atoms: _224  and  _226
REMARK   88  A    between atoms: _226  and  _227
REMARK   89  A    between atoms: _226  and  _229
REMARK   90  A    between atoms: _229  and  _230
REMARK   91  A    between atoms: _240  and  _242
REMARK   92  A    between atoms: _242  and  _243
REMARK   93  A    between atoms: _242  and  _245
REMARK   94  A    between atoms: _245  and  _246
REMARK   95  A    between atoms: _252  and  _254
REMARK   96  A    between atoms: _254  and  _255
REMARK   97  A    between atoms: _254  and  _257
REMARK   98  A    between atoms: _257  and  _258
REMARK   99  A    between atoms: _264  and  _266
REMARK  100  A    between atoms: _266  and  _267
REMARK  101  A    between atoms: _266  and  _269
REMARK  102  A    between atoms: _269  and  _270
REMARK  103  A    between atoms: _275  and  _277
REMARK  104  A    between atoms: _277  and  _278
REMARK  105  A    between atoms: _277  and  _280
REMARK  106  A    between atoms: _280  and  _281
REMARK  107  A    between atoms: _286  and  _288
REMARK  108  A    between atoms: _288  and  _289
REMARK  109  A    between atoms: _288  and  _291
REMARK  110  A    between atoms: _291  and  _292
REMARK  111  A    between atoms: _292  and  _293
REMARK  112  A    between atoms: _296  and  _298
REMARK  113  A    between atoms: _298  and  _299
REMARK  114  A    between atoms: _298  and  _301
REMARK  115  A    between atoms: _301  and  _302
REMARK  116  A    between atoms: _305  and  _307
REMARK  117  A    between atoms: _307  and  _308
REMARK  118  A    between atoms: _307  and  _310
REMARK  119  A    between atoms: _310  and  _311
REMARK  120  A    between atoms: _313  and  _315
REMARK  121  A    between atoms: _315  and  _316
REMARK  122  A    between atoms: _315  and  _318
REMARK  123  A    between atoms: _318  and  _319
REMARK  124  A    between atoms: _319  and  _320
REMARK  125  A    between atoms: _320  and  _321
REMARK  126  A    between atoms: _321  and  _322
REMARK  127  A    between atoms: _326  and  _328
REMARK  128  A    between atoms: _328  and  _329
REMARK  129  A    between atoms: _328  and  _331
REMARK  130  A    between atoms: _331  and  _332
REMARK  131  A    between atoms: _334  and  _336
REMARK  132  A    between atoms: _336  and  _337
REMARK  133  A    between atoms: _339  and  _341
REMARK  134  A    between atoms: _341  and  _342
REMARK  135  A    between atoms: _341  and  _344
REMARK  136  A    between atoms: _344  and  _345
REMARK  137  A    between atoms: _350  and  _351
REMARK  138  A    between atoms: _353  and  _355
REMARK  139  A    between atoms: _355  and  _356
REMARK  140  A    between atoms: _355  and  _358
REMARK  141  A    between atoms: _361  and  _363
REMARK  142  A    between atoms: _363  and  _364
REMARK  143  A    between atoms: _366  and  _368
REMARK  144  A    between atoms: _368  and  _369
REMARK  145  A    between atoms: _368  and  _371
REMARK  146  A    between atoms: _371  and  _372
REMARK  147  A    between atoms: _377  and  _379
REMARK  148  A    between atoms: _379  and  _380
REMARK  149  A    between atoms: _383  and  _385
REMARK  150  A    between atoms: _385  and  _386
REMARK  151  A    between atoms: _385  and  _388
REMARK  152  A    between atoms: _388  and  _389
REMARK  153  A    between atoms: _394  and  _396
REMARK  154  A    between atoms: _396  and  _397
REMARK  155  A    between atoms: _396  and  _399
REMARK  156  A    between atoms: _399  and  _400
REMARK  157  A    between atoms: _400  and  _401
REMARK  158  A    between atoms: _401  and  _402
REMARK  159  A    between atoms: _402  and  CA_598
REMARK  160  A    between atoms: _404  and  _406
REMARK  161  A    between atoms: _406  and  _407
REMARK  162  A    between atoms: _406  and  _409
REMARK  163  A    between atoms: _409  and  _410
REMARK  164  A    between atoms: _410  and  _411
REMARK  165  A    between atoms: _414  and  _416
REMARK  166  A    between atoms: _416  and  _417
REMARK  167  A    between atoms: _416  and  _419
REMARK  168  A    between atoms: _419  and  _420
REMARK  169  A    between atoms: _422  and  _424
REMARK  170  A    between atoms: _424  and  _425
REMARK  171  A    between atoms: _428  and  _430
REMARK  172  A    between atoms: _430  and  _431
REMARK  173  A    between atoms: _430  and  _433
REMARK  174  A    between atoms: _433  and  _434
REMARK  175  A    between atoms: _434  and  _435
REMARK  176  A    between atoms: _435  and  _436
REMARK  177  A    between atoms: _445  and  _447
REMARK  178  A    between atoms: _447  and  _448
REMARK  179  A    between atoms: _450  and  _452
REMARK  180  A    between atoms: _452  and  _453
REMARK  181  A    between atoms: _452  and  _455
REMARK  182  A    between atoms: _455  and  _456
REMARK  183  A    between atoms: _459  and  _461
REMARK  184  A    between atoms: _461  and  _462
REMARK  185  A    between atoms: _461  and  _464
REMARK  186  A    between atoms: _464  and  _465
REMARK  187  A    between atoms: _465  and  _466
REMARK  188  A    between atoms: _469  and  _471
REMARK  189  A    between atoms: _471  and  _472
REMARK  190  A    between atoms: _471  and  _474
REMARK  191  A    between atoms: _474  and  _475
REMARK  192  A    between atoms: _480  and  _481
REMARK  193  A    between atoms: _483  and  _485
REMARK  194  A    between atoms: _485  and  _486
REMARK  195  A    between atoms: _485  and  _488
REMARK  196  A    between atoms: _488  and  _489
REMARK  197  A    between atoms: _489  and  _490
REMARK  198  A    between atoms: _493  and  _495
REMARK  199  A    between atoms: _495  and  _496
REMARK  200  A    between atoms: _495  and  _498
REMARK  201  A    between atoms: _498  and  _499
REMARK  202  A    between atoms: _501  and  _503
REMARK  203  A    between atoms: _503  and  _504
REMARK  204  A    between atoms: _503  and  _506
REMARK  205  A    between atoms: _506  and  _507
REMARK  206  A    between atoms: _513  and  _515
REMARK  207  A    between atoms: _515  and  _516
REMARK  208  A    between atoms: _518  and  _520
REMARK  209  A    between atoms: _520  and  _521
REMARK  210  A    between atoms: _523  and  _525
REMARK  211  A    between atoms: _525  and  _526
REMARK  212  A    between atoms: _525  and  _528
REMARK  213  A    between atoms: _528  and  _529
REMARK  214  A    between atoms: _532  and  _534
REMARK  215  A    between atoms: _534  and  _535
REMARK  216  A    between atoms: _534  and  _537
REMARK  217  A    between atoms: _537  and  _538
REMARK  218  A    between atoms: _541  and  _543
REMARK  219  A    between atoms: _543  and  _544
REMARK  220  A    between atoms: _547  and  _549
REMARK  221  A    between atoms: _549  and  _550
REMARK  222  A    between atoms: _549  and  _552
REMARK  223  A    between atoms: _552  and  _553
REMARK  224  A    between atoms: _558  and  _560
REMARK  225  A    between atoms: _560  and  _561
REMARK  226  A    between atoms: _560  and  _563
REMARK  227  A    between atoms: _563  and  _564
REMARK  228  A    between atoms: _569  and  _571
REMARK  229  A    between atoms: _571  and  _572
REMARK  230  A    between atoms: _571  and  _574
REMARK  231  A    between atoms: _574  and  _575
REMARK  232  A    between atoms: _577  and  _579
REMARK  233  A    between atoms: _579  and  _580
REMARK  234  A    between atoms: _579  and  _582
REMARK  235  A    between atoms: _582  and  _583
REMARK  236  A    between atoms: _583  and  _584
REMARK  237  A    between atoms: _589  and  _591
REMARK  238  A    between atoms: _591  and  _592
REMARK  239  A    between atoms: _591  and  _594
REMARK  240  A    between atoms: _594  and  _595
REMARK  241  A    between atoms: _595  and  _596
REMARK                            x       y       z     vdW  Elec       q    Type
REMARK                         _______ _______ _______ _____ _____    ______ ____
ROOT
ATOM      1  CA  ASN A   3      15.498  57.359  27.192  0.00  0.00    +0.158 C 
ENDROOT
BRANCH   1   2
ATOM      2  C   ASN A   3      16.792  57.645  26.435  0.00  0.00    +0.241 C 
ATOM      3  N   SER A   4      17.906  57.123  26.937  0.00  0.00    -0.295 N 
ATOM      4  H   SER A   4      17.861  56.556  27.808  0.00  0.00    +0.150 HD
ATOM      5  O   ASN A   3      16.781  58.325  25.407  0.00  0.00    -0.273 OA
BRANCH   3   6
ATOM      6  CA  SER A   4      19.191  57.335  26.282  0.00  0.00    +0.178 C 
BRANCH   6   7
ATOM      7  C   SER A   4      19.251  56.487  25.017  0.00  0.00    +0.243 C 
ATOM      8  O   SER A   4      18.693  55.391  24.973  0.00  0.00    -0.273 OA
ATOM      9  N   GLN A   5      19.921  56.998  23.987  0.00  0.00    -0.298 N 
ATOM     10  H   GLN A   5      20.366  57.933  24.081  0.00  0.00    +0.150 HD
BRANCH   9  11
ATOM     11  CA  GLN A   5      20.044  56.271  22.727  0.00  0.00    +0.137 C 
BRANCH  11  12
ATOM     12  C   GLN A   5      21.503  56.177  22.296  0.00  0.00    +0.227 C 
ATOM     13  O   GLN A   5      22.208  57.184  22.233  0.00  0.00    -0.286 OA
ENDBRANCH  11  12
BRANCH  11  14
ATOM     14  CB  GLN A   5      19.234  56.966  21.625  0.00  0.00    +0.037 C 
BRANCH  14  15
ATOM     15  CG  GLN A   5      19.088  56.139  20.352  0.00  0.00    +0.087 C 
BRANCH  15  16
ATOM     16  CD  GLN A   5      18.324  56.867  19.255  0.00  0.00    +0.219 C 
ATOM     17  OE1 GLN A   5      17.560  57.794  19.524  0.00  0.00    -0.275 OA
ATOM     18  NE2 GLN A   5      18.519  56.437  18.014  0.00  0.00    -0.329 N 
ATOM     19 HE21 GLN A   5      19.174  55.650  17.833  0.00  0.00    +0.145 HD
ATOM     20 HE22 GLN A   5      18.016  56.887  17.223  0.00  0.00    +0.145 HD
ENDBRANCH  15  16
ENDBRANCH  14  15
ENDBRANCH  11  14
ENDBRANCH   9  11
ENDBRANCH   6   7
BRANCH   6  21
ATOM     21  CB  SER A   4      20.333  56.950  27.226  0.00  0.00    +0.166 C 
BRANCH  21  22
ATOM     22  OG  SER A   4      21.591  57.312  26.683  0.00  0.00    -0.380 OA
ATOM     23  H   SER A   4      21.723  56.845  25.820  0.00  0.00    +0.211 HD
ENDBRANCH  21  22
ENDBRANCH   6  21
ENDBRANCH   3   6
ENDBRANCH   1   2
BRANCH   1  25
ATOM     24  C   ASN A   2      15.699  55.665  28.931  0.00  0.00    +0.241 C 
ATOM     25  N   ASN A   3      15.710  56.947  28.576  0.00  0.00    -0.297 N 
ATOM     26  H   ASN A   3      15.874  57.673  29.302  0.00  0.00    +0.150 HD
ATOM     27  O   ASN A   2      15.522  54.753  28.128  0.00  0.00    -0.273 OA
BRANCH  24  28
ATOM     28  CA  ASN A   2      15.917  55.365  30.411  0.00  0.00    +0.158 C 
BRANCH  28  31
ATOM     29  C   ALA A   1      13.946  55.782  31.779  0.00  0.00    +0.238 C 
ATOM     30  O   ALA A   1      14.293  56.940  32.010  0.00  0.00    -0.274 OA
ATOM     31  N   ASN A   2      14.655  54.954  31.019  0.00  0.00    -0.297 N 
ATOM     32  H   ASN A   2      14.302  53.990  30.853  0.00  0.00    +0.150 HD
BRANCH  29  33
ATOM     33  CA  ALA A   1      12.650  55.230  32.367  0.00  0.00    +0.145 C 
ATOM     34  CB  ALA A   1      12.756  55.173  33.887  0.00  0.00    +0.028 C 
BRANCH  33  35
ATOM     35  N   ALA A   1      12.294  53.914  31.844  0.00  0.00    -0.238 NA
ATOM     36  H   ALA A   1      12.550  53.063  32.385  0.00  0.00    +0.142 HD
ENDBRANCH  33  35
ENDBRANCH  29  33
ENDBRANCH  28  31
BRANCH  28  37
ATOM     37  CB  ASN A   2      16.952  54.248  30.587  0.00  0.00    +0.114 C 
BRANCH  37  38
ATOM     38  CG  ASN A   2      18.349  54.658  30.150  0.00  0.00    +0.222 C 
ATOM     39  OD1 ASN A   2      19.327  53.966  30.441  0.00  0.00    -0.275 OA
ATOM     40  ND2 ASN A   2      18.451  55.778  29.449  0.00  0.00    -0.329 N 
ATOM     41 HD21 ASN A   2      17.599  56.331  29.226  0.00  0.00    +0.145 HD
ATOM     42 HD22 ASN A   2      19.383  56.104  29.122  0.00  0.00    +0.145 HD
ENDBRANCH  37  38
ENDBRANCH  28  37
ENDBRANCH  24  28
ENDBRANCH   1  25
BRANCH   1  43
ATOM     43  CB  ASN A   3      14.594  58.596  27.152  0.00  0.00    +0.114 C 
BRANCH  43  44
ATOM     44  CG  ASN A   3      13.144  58.270  27.471  0.00  0.00    +0.222 C 
ATOM     45  OD1 ASN A   3      12.339  59.165  27.728  0.00  0.00    -0.275 OA
ATOM     46  ND2 ASN A   3      12.803  56.987  27.443  0.00  0.00    -0.329 N 
ATOM     47 HD21 ASN A   3      11.822  56.705  27.643  0.00  0.00    +0.145 HD
ATOM     48 HD22 ASN A   3      13.517  56.264  27.221  0.00  0.00    +0.145 HD
ENDBRANCH  43  44
ENDBRANCH   1  43
TORSDOF 19
REMARK  Name = ../refined-set-2016/2zq0/2zq0_pocket.pdb
REMARK  241 active torsions:
REMARK  status: ('A' for Active; 'I' for Inactive)
REMARK    1  A    between atoms: _1  and  _3
REMARK    2  A    between atoms: _3  and  _4
REMARK    3  A    between atoms: _3  and  _6
REMARK    4  A    between atoms: _6  and  _7
REMARK    5  A    between atoms: _10  and  _12
REMARK    6  A    between atoms: _12  and  _13
REMARK    7  A    between atoms: _12  and  _15
REMARK    8  A    between atoms: _15  and  _16
REMARK    9  A    between atoms: _16  and  _17
REMARK   10  A    between atoms: _22  and  _24
REMARK   11  A    between atoms: _24  and  _25
REMARK   12  A    between atoms: _24  and  _27
REMARK   13  A    between atoms: _27  and  _28
REMARK   14  A    between atoms: _28  and  _29
REMARK   15  A    between atoms: _29  and  _31
REMARK   16  A    between atoms: _31  and  CA_598
REMARK   17  A    between atoms: _32  and  _34
REMARK   18  A    between atoms: _34  and  _35
REMARK   19  A    between atoms: _34  and  _37
REMARK   20  A    between atoms: _37  and  _38
REMARK   21  A    between atoms: _42  and  _43
REMARK   22  A    between atoms: _48  and  _50
REMARK   23  A    between atoms: _50  and  _51
REMARK   24  A    between atoms: _50  and  _53
REMARK   25  A    between atoms: _53  and  _54
REMARK   26  A    between atoms: _59  and  _61
REMARK   27  A    between atoms: _61  and  _62
REMARK   28  A    between atoms: _61  and  _64
REMARK   29  A    between atoms: _64  and  _65
REMARK   30  A    between atoms: _67  and  _69
REMARK   31  A    between atoms: _69  and  _70
REMARK   32  A    between atoms: _69  and  _72
REMARK   33  A    between atoms: _72  and  _73
REMARK   34  A    between atoms: _75  and  _77
REMARK   35  A    between atoms: _77  and  _78
REMARK   36  A    between atoms: _77  and  _80
REMARK   37  A    between atoms: _80  and  _81
REMARK   38  A    between atoms: _81  and  _82
REMARK   39  A    between atoms: _87  and  _89
REMARK   40  A    between atoms: _89  and  _90
REMARK   41  A    between atoms: _89  and  _92
REMARK   42  A    between atoms: _92  and  _93
REMARK   43  A    between atoms: _98  and  _99
REMARK   44  A    between atoms: _101  and  _103
REMARK   45  A    between atoms: _103  and  _104
REMARK   46  A    between atoms: _103  and  _106
REMARK   47  A    between atoms: _109  and  _111
REMARK   48  A    between atoms: _111  and  _112
REMARK   49  A    between atoms: _111  and  _114
REMARK   50  A    between atoms: _114  and  _115
REMARK   51  A    between atoms: _125  and  _127
REMARK   52  A    between atoms: _127  and  _128
REMARK   53  A    between atoms: _127  and  _130
REMARK   54  A    between atoms: _130  and  _131
REMARK   55  A    between atoms: _141  and  _143
REMARK   56  A    between atoms: _143  and  _144
REMARK   57  A    between atoms: _143  and  _146
REMARK   58  A    between atoms: _146  and  _147
REMARK   59  A    between atoms: _147  and  _148
REMARK   60  A    between atoms: _150  and  _152
REMARK   61  A    between atoms: _152  and  _153
REMARK   62  A    between atoms: _152  and  _155
REMARK   63  A    between atoms: _155  and  _156
REMARK   64  A    between atoms: _159  and  _161
REMARK   65  A    between atoms: _161  and  _162
REMARK   66  A    between atoms: _161  and  _164
REMARK   67  A    between atoms: _164  and  _165
REMARK   68  A    between atoms: _168  and  _170
REMARK   69  A    between atoms: _170  and  _171
REMARK   70  A    between atoms: _170  and  _173
REMARK   71  A    between atoms: _173  and  _174
REMARK   72  A    between atoms: _184  and  _186
REMARK   73  A    between atoms: _186  and  _187
REMARK   74  A    between atoms: _186  and  _189
REMARK   75  A    between atoms: _189  and  _190
REMARK   76  A    between atoms: _193  and  _195
REMARK   77  A    between atoms: _195  and  _196
REMARK   78  A    between atoms: _195  and  _198
REMARK   79  A    between atoms: _198  and  _199
REMARK   80  A    between atoms: _199  and  _200
REMARK   81  A    between atoms: _203  and  _205
REMARK   82  A    between atoms: _205  and  _206
REMARK   83  A    between atoms: _208  and  _210
REMARK   84  A    between atoms: _210  and  _211
REMARK   85  A    between atoms: _210  and  _213
REMARK   86  A    between atoms: _213  and  _214
REMARK   87  A    between atoms: _224  and  _226
REMARK   88  A    between atoms: _226  and  _227
REMARK   89  A    between atoms: _226  and  _229
REMARK   90  A    between atoms: _229  and  _230
REMARK   91  A    between atoms: _240  and  _242
REMARK   92  A    between atoms: _242  and  _243
REMARK   93  A    between atoms: _242  and  _245
REMARK   94  A    between atoms: _245  and  _246
REMARK   95  A    between atoms: _252  and  _254
REMARK   96  A    between atoms: _254  and  _255
REMARK   97  A    between atoms: _254  and  _257
REMARK   98  A    between atoms: _257  and  _258
REMARK   99  A    between atoms: _264  and  _266
REMARK  100  A    between atoms: _266  and  _267
REMARK  101  A    between atoms: _266  and  _269
REMARK  102  A    between atoms: _269  and  _270
REMARK  103  A    between atoms: _275  and  _277
REMARK  104  A    between atoms: _277  and  _278
REMARK  105  A    between atoms: _277  and  _280
REMARK  106  A    between atoms: _280  and  _281
REMARK  107  A    between atoms: _286  and  _288
REMARK  108  A    between atoms: _288  and  _289
REMARK  109  A    between atoms: _288  and  _291
REMARK  110  A    between atoms: _291  and  _292
REMARK  111  A    between atoms: _292  and  _293
REMARK  112  A    between atoms: _296  and  _298
REMARK  113  A    between atoms: _298  and  _299
REMARK  114  A    between atoms: _298  and  _301
REMARK  115  A    between atoms: _301  and  _302
REMARK  116  A    between atoms: _305  and  _307
REMARK  117  A    between atoms: _307  and  _308
REMARK  118  A    between atoms: _307  and  _310
REMARK  119  A    between atoms: _310  and  _311
REMARK  120  A    between atoms: _313  and  _315
REMARK  121  A    between atoms: _315  and  _316
REMARK  122  A    between atoms: _315  and  _318
REMARK  123  A    between atoms: _318  and  _319
REMARK  124  A    between atoms: _319  and  _320
REMARK  125  A    between atoms: _320  and  _321
REMARK  126  A    between atoms: _321  and  _322
REMARK  127  A    between atoms: _326  and  _328
REMARK  128  A    between atoms: _328  and  _329
REMARK  129  A    between atoms: _328  and  _331
REMARK  130  A    between atoms: _331  and  _332
REMARK  131  A    between atoms: _334  and  _336
REMARK  132  A    between atoms: _336  and  _337
REMARK  133  A    between atoms: _339  and  _341
REMARK  134  A    between atoms: _341  and  _342
REMARK  135  A    between atoms: _341  and  _344
REMARK  136  A    between atoms: _344  and  _345
REMARK  137  A    between atoms: _350  and  _351
REMARK  138  A    between atoms: _353  and  _355
REMARK  139  A    between atoms: _355  and  _356
REMARK  140  A    between atoms: _355  and  _358
REMARK  141  A    between atoms: _361  and  _363
REMARK  142  A    between atoms: _363  and  _364
REMARK  143  A    between atoms: _366  and  _368
REMARK  144  A    between atoms: _368  and  _369
REMARK  145  A    between atoms: _368  and  _371
REMARK  146  A    between atoms: _371  and  _372
REMARK  147  A    between atoms: _377  and  _379
REMARK  148  A    between atoms: _379  and  _380
REMARK  149  A    between atoms: _383  and  _385
REMARK  150  A    between atoms: _385  and  _386
REMARK  151  A    between atoms: _385  and  _388
REMARK  152  A    between atoms: _388  and  _389
REMARK  153  A    between atoms: _394  and  _396
REMARK  154  A    between atoms: _396  and  _397
REMARK  155  A    between atoms: _396  and  _399
REMARK  156  A    between atoms: _399  and  _400
REMARK  157  A    between atoms: _400  and  _401
REMARK  158  A    between atoms: _401  and  _402
REMARK  159  A    between atoms: _402  and  CA_598
REMARK  160  A    between atoms: _404  and  _406
REMARK  161  A    between atoms: _406  and  _407
REMARK  162  A    between atoms: _406  and  _409
REMARK  163  A    between atoms: _409  and  _410
REMARK  164  A    between atoms: _410  and  _411
REMARK  165  A    between atoms: _414  and  _416
REMARK  166  A    between atoms: _416  and  _417
REMARK  167  A    between atoms: _416  and  _419
REMARK  168  A    between atoms: _419  and  _420
REMARK  169  A    between atoms: _422  and  _424
REMARK  170  A    between atoms: _424  and  _425
REMARK  171  A    between atoms: _428  and  _430
REMARK  172  A    between atoms: _430  and  _431
REMARK  173  A    between atoms: _430  and  _433
REMARK  174  A    between atoms: _433  and  _434
REMARK  175  A    between atoms: _434  and  _435
REMARK  176  A    between atoms: _435  and  _436
REMARK  177  A    between atoms: _445  and  _447
REMARK  178  A    between atoms: _447  and  _448
REMARK  179  A    between atoms: _450  and  _452
REMARK  180  A    between atoms: _452  and  _453
REMARK  181  A    between atoms: _452  and  _455
REMARK  182  A    between atoms: _455  and  _456
REMARK  183  A    between atoms: _459  and  _461
REMARK  184  A    between atoms: _461  and  _462
REMARK  185  A    between atoms: _461  and  _464
REMARK  186  A    between atoms: _464  and  _465
REMARK  187  A    between atoms: _465  and  _466
REMARK  188  A    between atoms: _469  and  _471
REMARK  189  A    between atoms: _471  and  _472
REMARK  190  A    between atoms: _471  and  _474
REMARK  191  A    between atoms: _474  and  _475
REMARK  192  A    between atoms: _480  and  _481
REMARK  193  A    between atoms: _483  and  _485
REMARK  194  A    between atoms: _485  and  _486
REMARK  195  A    between atoms: _485  and  _488
REMARK  196  A    between atoms: _488  and  _489
REMARK  197  A    between atoms: _489  and  _490
REMARK  198  A    between atoms: _493  and  _495
REMARK  199  A    between atoms: _495  and  _496
REMARK  200  A    between atoms: _495  and  _498
REMARK  201  A    between atoms: _498  and  _499
REMARK  202  A    between atoms: _501  and  _503
REMARK  203  A    between atoms: _503  and  _504
REMARK  204  A    between atoms: _503  and  _506
REMARK  205  A    between atoms: _506  and  _507
REMARK  206  A    between atoms: _513  and  _515
REMARK  207  A    between atoms: _515  and  _516
REMARK  208  A    between atoms: _518  and  _520
REMARK  209  A    between atoms: _520  and  _521
REMARK  210  A    between atoms: _523  and  _525
REMARK  211  A    between atoms: _525  and  _526
REMARK  212  A    between atoms: _525  and  _528
REMARK  213  A    between atoms: _528  and  _529
REMARK  214  A    between atoms: _532  and  _534
REMARK  215  A    between atoms: _534  and  _535
REMARK  216  A    between atoms: _534  and  _537
REMARK  217  A    between atoms: _537  and  _538
REMARK  218  A    between atoms: _541  and  _543
REMARK  219  A    between atoms: _543  and  _544
REMARK  220  A    between atoms: _547  and  _549
REMARK  221  A    between atoms: _549  and  _550
REMARK  222  A    between atoms: _549  and  _552
REMARK  223  A    between atoms: _552  and  _553
REMARK  224  A    between atoms: _558  and  _560
REMARK  225  A    between atoms: _560  and  _561
REMARK  226  A    between atoms: _560  and  _563
REMARK  227  A    between atoms: _563  and  _564
REMARK  228  A    between atoms: _569  and  _571
REMARK  229  A    between atoms: _571  and  _572
REMARK  230  A    between atoms: _571  and  _574
REMARK  231  A    between atoms: _574  and  _575
REMARK  232  A    between atoms: _577  and  _579
REMARK  233  A    between atoms: _579  and  _580
REMARK  234  A    between atoms: _579  and  _582
REMARK  235  A    between atoms: _582  and  _583
REMARK  236  A    between atoms: _583  and  _584
REMARK  237  A    between atoms: _589  and  _591
REMARK  238  A    between atoms: _591  and  _592
REMARK  239  A    between atoms: _591  and  _594
REMARK  240  A    between atoms: _594  and  _595
REMARK  241  A    between atoms: _595  and  _596
REMARK                            x       y       z     vdW  Elec       q    Type
REMARK                         _______ _______ _______ _____ _____    ______ ____
ROOT
ATOM      1  CA  MET A   1      32.884  42.248  25.201  0.00  0.00    +0.134 C 
ENDROOT
BRANCH   1   2
ATOM      2  N   MET A   1      34.179  42.636  24.668  0.00  0.00    -0.239 NA
ATOM      3  H   MET A   1      34.424  43.644  24.598  0.00  0.00    +0.142 HD
ENDBRANCH   1   2
BRANCH   1   4
ATOM      4  C   MET A   1      31.790  42.441  24.156  0.00  0.00    +0.224 C 
ATOM      5  O   MET A   1      31.879  43.322  23.301  0.00  0.00    -0.287 OA
ENDBRANCH   1   4
BRANCH   1   6
ATOM      6  CB  MET A   1      32.528  43.100  26.424  0.00  0.00    +0.037 C 
BRANCH   6   7
ATOM      7  CG  MET A   1      31.278  42.629  27.163  0.00  0.00    +0.059 C 
BRANCH   7   8
ATOM      8  SD  MET A   1      30.705  43.765  28.440  0.00  0.00    -0.139 S 
ATOM      9  CE  MET A   1      29.713  42.657  29.465  0.00  0.00    +0.069 C 
ENDBRANCH   7   8
ENDBRANCH   6   7
ENDBRANCH   1   6
TORSDOF 5
REMARK  Name = ../refined-set-2016/2zq0/2zq0_pocket.pdb
REMARK  241 active torsions:
REMARK  status: ('A' for Active; 'I' for Inactive)
REMARK    1  A    between atoms: _1  and  _3
REMARK    2  A    between atoms: _3  and  _4
REMARK    3  A    between atoms: _3  and  _6
REMARK    4  A    between atoms: _6  and  _7
REMARK    5  A    between atoms: _10  and  _12
REMARK    6  A    between atoms: _12  and  _13
REMARK    7  A    between atoms: _12  and  _15
REMARK    8  A    between atoms: _15  and  _16
REMARK    9  A    between atoms: _16  and  _17
REMARK   10  A    between atoms: _22  and  _24
REMARK   11  A    between atoms: _24  and  _25
REMARK   12  A    between atoms: _24  and  _27
REMARK   13  A    between atoms: _27  and  _28
REMARK   14  A    between atoms: _28  and  _29
REMARK   15  A    between atoms: _29  and  _31
REMARK   16  A    between atoms: _31  and  CA_598
REMARK   17  A    between atoms: _32  and  _34
REMARK   18  A    between atoms: _34  and  _35
REMARK   19  A    between atoms: _34  and  _37
REMARK   20  A    between atoms: _37  and  _38
REMARK   21  A    between atoms: _42  and  _43
REMARK   22  A    between atoms: _48  and  _50
REMARK   23  A    between atoms: _50  and  _51
REMARK   24  A    between atoms: _50  and  _53
REMARK   25  A    between atoms: _53  and  _54
REMARK   26  A    between atoms: _59  and  _61
REMARK   27  A    between atoms: _61  and  _62
REMARK   28  A    between atoms: _61  and  _64
REMARK   29  A    between atoms: _64  and  _65
REMARK   30  A    between atoms: _67  and  _69
REMARK   31  A    between atoms: _69  and  _70
REMARK   32  A    between atoms: _69  and  _72
REMARK   33  A    between atoms: _72  and  _73
REMARK   34  A    between atoms: _75  and  _77
REMARK   35  A    between atoms: _77  and  _78
REMARK   36  A    between atoms: _77  and  _80
REMARK   37  A    between atoms: _80  and  _81
REMARK   38  A    between atoms: _81  and  _82
REMARK   39  A    between atoms: _87  and  _89
REMARK   40  A    between atoms: _89  and  _90
REMARK   41  A    between atoms: _89  and  _92
REMARK   42  A    between atoms: _92  and  _93
REMARK   43  A    between atoms: _98  and  _99
REMARK   44  A    between atoms: _101  and  _103
REMARK   45  A    between atoms: _103  and  _104
REMARK   46  A    between atoms: _103  and  _106
REMARK   47  A    between atoms: _109  and  _111
REMARK   48  A    between atoms: _111  and  _112
REMARK   49  A    between atoms: _111  and  _114
REMARK   50  A    between atoms: _114  and  _115
REMARK   51  A    between atoms: _125  and  _127
REMARK   52  A    between atoms: _127  and  _128
REMARK   53  A    between atoms: _127  and  _130
REMARK   54  A    between atoms: _130  and  _131
REMARK   55  A    between atoms: _141  and  _143
REMARK   56  A    between atoms: _143  and  _144
REMARK   57  A    between atoms: _143  and  _146
REMARK   58  A    between atoms: _146  and  _147
REMARK   59  A    between atoms: _147  and  _148
REMARK   60  A    between atoms: _150  and  _152
REMARK   61  A    between atoms: _152  and  _153
REMARK   62  A    between atoms: _152  and  _155
REMARK   63  A    between atoms: _155  and  _156
REMARK   64  A    between atoms: _159  and  _161
REMARK   65  A    between atoms: _161  and  _162
REMARK   66  A    between atoms: _161  and  _164
REMARK   67  A    between atoms: _164  and  _165
REMARK   68  A    between atoms: _168  and  _170
REMARK   69  A    between atoms: _170  and  _171
REMARK   70  A    between atoms: _170  and  _173
REMARK   71  A    between atoms: _173  and  _174
REMARK   72  A    between atoms: _184  and  _186
REMARK   73  A    between atoms: _186  and  _187
REMARK   74  A    between atoms: _186  and  _189
REMARK   75  A    between atoms: _189  and  _190
REMARK   76  A    between atoms: _193  and  _195
REMARK   77  A    between atoms: _195  and  _196
REMARK   78  A    between atoms: _195  and  _198
REMARK   79  A    between atoms: _198  and  _199
REMARK   80  A    between atoms: _199  and  _200
REMARK   81  A    between atoms: _203  and  _205
REMARK   82  A    between atoms: _205  and  _206
REMARK   83  A    between atoms: _208  and  _210
REMARK   84  A    between atoms: _210  and  _211
REMARK   85  A    between atoms: _210  and  _213
REMARK   86  A    between atoms: _213  and  _214
REMARK   87  A    between atoms: _224  and  _226
REMARK   88  A    between atoms: _226  and  _227
REMARK   89  A    between atoms: _226  and  _229
REMARK   90  A    between atoms: _229  and  _230
REMARK   91  A    between atoms: _240  and  _242
REMARK   92  A    between atoms: _242  and  _243
REMARK   93  A    between atoms: _242  and  _245
REMARK   94  A    between atoms: _245  and  _246
REMARK   95  A    between atoms: _252  and  _254
REMARK   96  A    between atoms: _254  and  _255
REMARK   97  A    between atoms: _254  and  _257
REMARK   98  A    between atoms: _257  and  _258
REMARK   99  A    between atoms: _264  and  _266
REMARK  100  A    between atoms: _266  and  _267
REMARK  101  A    between atoms: _266  and  _269
REMARK  102  A    between atoms: _269  and  _270
REMARK  103  A    between atoms: _275  and  _277
REMARK  104  A    between atoms: _277  and  _278
REMARK  105  A    between atoms: _277  and  _280
REMARK  106  A    between atoms: _280  and  _281
REMARK  107  A    between atoms: _286  and  _288
REMARK  108  A    between atoms: _288  and  _289
REMARK  109  A    between atoms: _288  and  _291
REMARK  110  A    between atoms: _291  and  _292
REMARK  111  A    between atoms: _292  and  _293
REMARK  112  A    between atoms: _296  and  _298
REMARK  113  A    between atoms: _298  and  _299
REMARK  114  A    between atoms: _298  and  _301
REMARK  115  A    between atoms: _301  and  _302
REMARK  116  A    between atoms: _305  and  _307
REMARK  117  A    between atoms: _307  and  _308
REMARK  118  A    between atoms: _307  and  _310
REMARK  119  A    between atoms: _310  and  _311
REMARK  120  A    between atoms: _313  and  _315
REMARK  121  A    between atoms: _315  and  _316
REMARK  122  A    between atoms: _315  and  _318
REMARK  123  A    between atoms: _318  and  _319
REMARK  124  A    between atoms: _319  and  _320
REMARK  125  A    between atoms: _320  and  _321
REMARK  126  A    between atoms: _321  and  _322
REMARK  127  A    between atoms: _326  and  _328
REMARK  128  A    between atoms: _328  and  _329
REMARK  129  A    between atoms: _328  and  _331
REMARK  130  A    between atoms: _331  and  _332
REMARK  131  A    between atoms: _334  and  _336
REMARK  132  A    between atoms: _336  and  _337
REMARK  133  A    between atoms: _339  and  _341
REMARK  134  A    between atoms: _341  and  _342
REMARK  135  A    between atoms: _341  and  _344
REMARK  136  A    between atoms: _344  and  _345
REMARK  137  A    between atoms: _350  and  _351
REMARK  138  A    between atoms: _353  and  _355
REMARK  139  A    between atoms: _355  and  _356
REMARK  140  A    between atoms: _355  and  _358
REMARK  141  A    between atoms: _361  and  _363
REMARK  142  A    between atoms: _363  and  _364
REMARK  143  A    between atoms: _366  and  _368
REMARK  144  A    between atoms: _368  and  _369
REMARK  145  A    between atoms: _368  and  _371
REMARK  146  A    between atoms: _371  and  _372
REMARK  147  A    between atoms: _377  and  _379
REMARK  148  A    between atoms: _379  and  _380
REMARK  149  A    between atoms: _383  and  _385
REMARK  150  A    between atoms: _385  and  _386
REMARK  151  A    between atoms: _385  and  _388
REMARK  152  A    between atoms: _388  and  _389
REMARK  153  A    between atoms: _394  and  _396
REMARK  154  A    between atoms: _396  and  _397
REMARK  155  A    between atoms: _396  and  _399
REMARK  156  A    between atoms: _399  and  _400
REMARK  157  A    between atoms: _400  and  _401
REMARK  158  A    between atoms: _401  and  _402
REMARK  159  A    between atoms: _402  and  CA_598
REMARK  160  A    between atoms: _404  and  _406
REMARK  161  A    between atoms: _406  and  _407
REMARK  162  A    between atoms: _406  and  _409
REMARK  163  A    between atoms: _409  and  _410
REMARK  164  A    between atoms: _410  and  _411
REMARK  165  A    between atoms: _414  and  _416
REMARK  166  A    between atoms: _416  and  _417
REMARK  167  A    between atoms: _416  and  _419
REMARK  168  A    between atoms: _419  and  _420
REMARK  169  A    between atoms: _422  and  _424
REMARK  170  A    between atoms: _424  and  _425
REMARK  171  A    between atoms: _428  and  _430
REMARK  172  A    between atoms: _430  and  _431
REMARK  173  A    between atoms: _430  and  _433
REMARK  174  A    between atoms: _433  and  _434
REMARK  175  A    between atoms: _434  and  _435
REMARK  176  A    between atoms: _435  and  _436
REMARK  177  A    between atoms: _445  and  _447
REMARK  178  A    between atoms: _447  and  _448
REMARK  179  A    between atoms: _450  and  _452
REMARK  180  A    between atoms: _452  and  _453
REMARK  181  A    between atoms: _452  and  _455
REMARK  182  A    between atoms: _455  and  _456
REMARK  183  A    between atoms: _459  and  _461
REMARK  184  A    between atoms: _461  and  _462
REMARK  185  A    between atoms: _461  and  _464
REMARK  186  A    between atoms: _464  and  _465
REMARK  187  A    between atoms: _465  and  _466
REMARK  188  A    between atoms: _469  and  _471
REMARK  189  A    between atoms: _471  and  _472
REMARK  190  A    between atoms: _471  and  _474
REMARK  191  A    between atoms: _474  and  _475
REMARK  192  A    between atoms: _480  and  _481
REMARK  193  A    between atoms: _483  and  _485
REMARK  194  A    between atoms: _485  and  _486
REMARK  195  A    between atoms: _485  and  _488
REMARK  196  A    between atoms: _488  and  _489
REMARK  197  A    between atoms: _489  and  _490
REMARK  198  A    between atoms: _493  and  _495
REMARK  199  A    between atoms: _495  and  _496
REMARK  200  A    between atoms: _495  and  _498
REMARK  201  A    between atoms: _498  and  _499
REMARK  202  A    between atoms: _501  and  _503
REMARK  203  A    between atoms: _503  and  _504
REMARK  204  A    between atoms: _503  and  _506
REMARK  205  A    between atoms: _506  and  _507
REMARK  206  A    between atoms: _513  and  _515
REMARK  207  A    between atoms: _515  and  _516
REMARK  208  A    between atoms: _518  and  _520
REMARK  209  A    between atoms: _520  and  _521
REMARK  210  A    between atoms: _523  and  _525
REMARK  211  A    between atoms: _525  and  _526
REMARK  212  A    between atoms: _525  and  _528
REMARK  213  A    between atoms: _528  and  _529
REMARK  214  A    between atoms: _532  and  _534
REMARK  215  A    between atoms: _534  and  _535
REMARK  216  A    between atoms: _534  and  _537
REMARK  217  A    between atoms: _537  and  _538
REMARK  218  A    between atoms: _541  and  _543
REMARK  219  A    between atoms: _543  and  _544
REMARK  220  A    between atoms: _547  and  _549
REMARK  221  A    between atoms: _549  and  _550
REMARK  222  A    between atoms: _549  and  _552
REMARK  223  A    between atoms: _552  and  _553
REMARK  224  A    between atoms: _558  and  _560
REMARK  225  A    between atoms: _560  and  _561
REMARK  226  A    between atoms: _560  and  _563
REMARK  227  A    between atoms: _563  and  _564
REMARK  228  A    between atoms: _569  and  _571
REMARK  229  A    between atoms: _571  and  _572
REMARK  230  A    between atoms: _571  and  _574
REMARK  231  A    between atoms: _574  and  _575
REMARK  232  A    between atoms: _577  and  _579
REMARK  233  A    between atoms: _579  and  _580
REMARK  234  A    between atoms: _579  and  _582
REMARK  235  A    between atoms: _582  and  _583
REMARK  236  A    between atoms: _583  and  _584
REMARK  237  A    between atoms: _589  and  _591
REMARK  238  A    between atoms: _591  and  _592
REMARK  239  A    between atoms: _591  and  _594
REMARK  240  A    between atoms: _594  and  _595
REMARK  241  A    between atoms: _595  and  _596
REMARK                            x       y       z     vdW  Elec       q    Type
REMARK                         _______ _______ _______ _____ _____    ______ ____
ROOT
ATOM      1  O   HOH     1      34.152  50.236  37.836  0.00  0.00    +0.000 OA
ENDROOT
TORSDOF 0
REMARK  Name = ../refined-set-2016/2zq0/2zq0_pocket.pdb
REMARK  241 active torsions:
REMARK  status: ('A' for Active; 'I' for Inactive)
REMARK    1  A    between atoms: _1  and  _3
REMARK    2  A    between atoms: _3  and  _4
REMARK    3  A    between atoms: _3  and  _6
REMARK    4  A    between atoms: _6  and  _7
REMARK    5  A    between atoms: _10  and  _12
REMARK    6  A    between atoms: _12  and  _13
REMARK    7  A    between atoms: _12  and  _15
REMARK    8  A    between atoms: _15  and  _16
REMARK    9  A    between atoms: _16  and  _17
REMARK   10  A    between atoms: _22  and  _24
REMARK   11  A    between atoms: _24  and  _25
REMARK   12  A    between atoms: _24  and  _27
REMARK   13  A    between atoms: _27  and  _28
REMARK   14  A    between atoms: _28  and  _29
REMARK   15  A    between atoms: _29  and  _31
REMARK   16  A    between atoms: _31  and  CA_598
REMARK   17  A    between atoms: _32  and  _34
REMARK   18  A    between atoms: _34  and  _35
REMARK   19  A    between atoms: _34  and  _37
REMARK   20  A    between atoms: _37  and  _38
REMARK   21  A    between atoms: _42  and  _43
REMARK   22  A    between atoms: _48  and  _50
REMARK   23  A    between atoms: _50  and  _51
REMARK   24  A    between atoms: _50  and  _53
REMARK   25  A    between atoms: _53  and  _54
REMARK   26  A    between atoms: _59  and  _61
REMARK   27  A    between atoms: _61  and  _62
REMARK   28  A    between atoms: _61  and  _64
REMARK   29  A    between atoms: _64  and  _65
REMARK   30  A    between atoms: _67  and  _69
REMARK   31  A    between atoms: _69  and  _70
REMARK   32  A    between atoms: _69  and  _72
REMARK   33  A    between atoms: _72  and  _73
REMARK   34  A    between atoms: _75  and  _77
REMARK   35  A    between atoms: _77  and  _78
REMARK   36  A    between atoms: _77  and  _80
REMARK   37  A    between atoms: _80  and  _81
REMARK   38  A    between atoms: _81  and  _82
REMARK   39  A    between atoms: _87  and  _89
REMARK   40  A    between atoms: _89  and  _90
REMARK   41  A    between atoms: _89  and  _92
REMARK   42  A    between atoms: _92  and  _93
REMARK   43  A    between atoms: _98  and  _99
REMARK   44  A    between atoms: _101  and  _103
REMARK   45  A    between atoms: _103  and  _104
REMARK   46  A    between atoms: _103  and  _106
REMARK   47  A    between atoms: _109  and  _111
REMARK   48  A    between atoms: _111  and  _112
REMARK   49  A    between atoms: _111  and  _114
REMARK   50  A    between atoms: _114  and  _115
REMARK   51  A    between atoms: _125  and  _127
REMARK   52  A    between atoms: _127  and  _128
REMARK   53  A    between atoms: _127  and  _130
REMARK   54  A    between atoms: _130  and  _131
REMARK   55  A    between atoms: _141  and  _143
REMARK   56  A    between atoms: _143  and  _144
REMARK   57  A    between atoms: _143  and  _146
REMARK   58  A    between atoms: _146  and  _147
REMARK   59  A    between atoms: _147  and  _148
REMARK   60  A    between atoms: _150  and  _152
REMARK   61  A    between atoms: _152  and  _153
REMARK   62  A    between atoms: _152  and  _155
REMARK   63  A    between atoms: _155  and  _156
REMARK   64  A    between atoms: _159  and  _161
REMARK   65  A    between atoms: _161  and  _162
REMARK   66  A    between atoms: _161  and  _164
REMARK   67  A    between atoms: _164  and  _165
REMARK   68  A    between atoms: _168  and  _170
REMARK   69  A    between atoms: _170  and  _171
REMARK   70  A    between atoms: _170  and  _173
REMARK   71  A    between atoms: _173  and  _174
REMARK   72  A    between atoms: _184  and  _186
REMARK   73  A    between atoms: _186  and  _187
REMARK   74  A    between atoms: _186  and  _189
REMARK   75  A    between atoms: _189  and  _190
REMARK   76  A    between atoms: _193  and  _195
REMARK   77  A    between atoms: _195  and  _196
REMARK   78  A    between atoms: _195  and  _198
REMARK   79  A    between atoms: _198  and  _199
REMARK   80  A    between atoms: _199  and  _200
REMARK   81  A    between atoms: _203  and  _205
REMARK   82  A    between atoms: _205  and  _206
REMARK   83  A    between atoms: _208  and  _210
REMARK   84  A    between atoms: _210  and  _211
REMARK   85  A    between atoms: _210  and  _213
REMARK   86  A    between atoms: _213  and  _214
REMARK   87  A    between atoms: _224  and  _226
REMARK   88  A    between atoms: _226  and  _227
REMARK   89  A    between atoms: _226  and  _229
REMARK   90  A    between atoms: _229  and  _230
REMARK   91  A    between atoms: _240  and  _242
REMARK   92  A    between atoms: _242  and  _243
REMARK   93  A    between atoms: _242  and  _245
REMARK   94  A    between atoms: _245  and  _246
REMARK   95  A    between atoms: _252  and  _254
REMARK   96  A    between atoms: _254  and  _255
REMARK   97  A    between atoms: _254  and  _257
REMARK   98  A    between atoms: _257  and  _258
REMARK   99  A    between atoms: _264  and  _266
REMARK  100  A    between atoms: _266  and  _267
REMARK  101  A    between atoms: _266  and  _269
REMARK  102  A    between atoms: _269  and  _270
REMARK  103  A    between atoms: _275  and  _277
REMARK  104  A    between atoms: _277  and  _278
REMARK  105  A    between atoms: _277  and  _280
REMARK  106  A    between atoms: _280  and  _281
REMARK  107  A    between atoms: _286  and  _288
REMARK  108  A    between atoms: _288  and  _289
REMARK  109  A    between atoms: _288  and  _291
REMARK  110  A    between atoms: _291  and  _292
REMARK  111  A    between atoms: _292  and  _293
REMARK  112  A    between atoms: _296  and  _298
REMARK  113  A    between atoms: _298  and  _299
REMARK  114  A    between atoms: _298  and  _301
REMARK  115  A    between atoms: _301  and  _302
REMARK  116  A    between atoms: _305  and  _307
REMARK  117  A    between atoms: _307  and  _308
REMARK  118  A    between atoms: _307  and  _310
REMARK  119  A    between atoms: _310  and  _311
REMARK  120  A    between atoms: _313  and  _315
REMARK  121  A    between atoms: _315  and  _316
REMARK  122  A    between atoms: _315  and  _318
REMARK  123  A    between atoms: _318  and  _319
REMARK  124  A    between atoms: _319  and  _320
REMARK  125  A    between atoms: _320  and  _321
REMARK  126  A    between atoms: _321  and  _322
REMARK  127  A    between atoms: _326  and  _328
REMARK  128  A    between atoms: _328  and  _329
REMARK  129  A    between atoms: _328  and  _331
REMARK  130  A    between atoms: _331  and  _332
REMARK  131  A    between atoms: _334  and  _336
REMARK  132  A    between atoms: _336  and  _337
REMARK  133  A    between atoms: _339  and  _341
REMARK  134  A    between atoms: _341  and  _342
REMARK  135  A    between atoms: _341  and  _344
REMARK  136  A    between atoms: _344  and  _345
REMARK  137  A    between atoms: _350  and  _351
REMARK  138  A    between atoms: _353  and  _355
REMARK  139  A    between atoms: _355  and  _356
REMARK  140  A    between atoms: _355  and  _358
REMARK  141  A    between atoms: _361  and  _363
REMARK  142  A    between atoms: _363  and  _364
REMARK  143  A    between atoms: _366  and  _368
REMARK  144  A    between atoms: _368  and  _369
REMARK  145  A    between atoms: _368  and  _371
REMARK  146  A    between atoms: _371  and  _372
REMARK  147  A    between atoms: _377  and  _379
REMARK  148  A    between atoms: _379  and  _380
REMARK  149  A    between atoms: _383  and  _385
REMARK  150  A    between atoms: _385  and  _386
REMARK  151  A    between atoms: _385  and  _388
REMARK  152  A    between atoms: _388  and  _389
REMARK  153  A    between atoms: _394  and  _396
REMARK  154  A    between atoms: _396  and  _397
REMARK  155  A    between atoms: _396  and  _399
REMARK  156  A    between atoms: _399  and  _400
REMARK  157  A    between atoms: _400  and  _401
REMARK  158  A    between atoms: _401  and  _402
REMARK  159  A    between atoms: _402  and  CA_598
REMARK  160  A    between atoms: _404  and  _406
REMARK  161  A    between atoms: _406  and  _407
REMARK  162  A    between atoms: _406  and  _409
REMARK  163  A    between atoms: _409  and  _410
REMARK  164  A    between atoms: _410  and  _411
REMARK  165  A    between atoms: _414  and  _416
REMARK  166  A    between atoms: _416  and  _417
REMARK  167  A    between atoms: _416  and  _419
REMARK  168  A    between atoms: _419  and  _420
REMARK  169  A    between atoms: _422  and  _424
REMARK  170  A    between atoms: _424  and  _425
REMARK  171  A    between atoms: _428  and  _430
REMARK  172  A    between atoms: _430  and  _431
REMARK  173  A    between atoms: _430  and  _433
REMARK  174  A    between atoms: _433  and  _434
REMARK  175  A    between atoms: _434  and  _435
REMARK  176  A    between atoms: _435  and  _436
REMARK  177  A    between atoms: _445  and  _447
REMARK  178  A    between atoms: _447  and  _448
REMARK  179  A    between atoms: _450  and  _452
REMARK  180  A    between atoms: _452  and  _453
REMARK  181  A    between atoms: _452  and  _455
REMARK  182  A    between atoms: _455  and  _456
REMARK  183  A    between atoms: _459  and  _461
REMARK  184  A    between atoms: _461  and  _462
REMARK  185  A    between atoms: _461  and  _464
REMARK  186  A    between atoms: _464  and  _465
REMARK  187  A    between atoms: _465  and  _466
REMARK  188  A    between atoms: _469  and  _471
REMARK  189  A    between atoms: _471  and  _472
REMARK  190  A    between atoms: _471  and  _474
REMARK  191  A    between atoms: _474  and  _475
REMARK  192  A    between atoms: _480  and  _481
REMARK  193  A    between atoms: _483  and  _485
REMARK  194  A    between atoms: _485  and  _486
REMARK  195  A    between atoms: _485  and  _488
REMARK  196  A    between atoms: _488  and  _489
REMARK  197  A    between atoms: _489  and  _490
REMARK  198  A    between atoms: _493  and  _495
REMARK  199  A    between atoms: _495  and  _496
REMARK  200  A    between atoms: _495  and  _498
REMARK  201  A    between atoms: _498  and  _499
REMARK  202  A    between atoms: _501  and  _503
REMARK  203  A    between atoms: _503  and  _504
REMARK  204  A    between atoms: _503  and  _506
REMARK  205  A    between atoms: _506  and  _507
REMARK  206  A    between atoms: _513  and  _515
REMARK  207  A    between atoms: _515  and  _516
REMARK  208  A    between atoms: _518  and  _520
REMARK  209  A    between atoms: _520  and  _521
REMARK  210  A    between atoms: _523  and  _525
REMARK  211  A    between atoms: _525  and  _526
REMARK  212  A    between atoms: _525  and  _528
REMARK  213  A    between atoms: _528  and  _529
REMARK  214  A    between atoms: _532  and  _534
REMARK  215  A    between atoms: _534  and  _535
REMARK  216  A    between atoms: _534  and  _537
REMARK  217  A    between atoms: _537  and  _538
REMARK  218  A    between atoms: _541  and  _543
REMARK  219  A    between atoms: _543  and  _544
REMARK  220  A    between atoms: _547  and  _549
REMARK  221  A    between atoms: _549  and  _550
REMARK  222  A    between atoms: _549  and  _552
REMARK  223  A    between atoms: _552  and  _553
REMARK  224  A    between atoms: _558  and  _560
REMARK  225  A    between atoms: _560  and  _561
REMARK  226  A    between atoms: _560  and  _563
REMARK  227  A    between atoms: _563  and  _564
REMARK  228  A    between atoms: _569  and  _571
REMARK  229  A    between atoms: _571  and  _572
REMARK  230  A    between atoms: _571  and  _574
REMARK  231  A    between atoms: _574  and  _575
REMARK  232  A    between atoms: _577  and  _579
REMARK  233  A    between atoms: _579  and  _580
REMARK  234  A    between atoms: _579  and  _582
REMARK  235  A    between atoms: _582  and  _583
REMARK  236  A    between atoms: _583  and  _584
REMARK  237  A    between atoms: _589  and  _591
REMARK  238  A    between atoms: _591  and  _592
REMARK  239  A    between atoms: _591  and  _594
REMARK  240  A    between atoms: _594  and  _595
REMARK  241  A    between atoms: _595  and  _596
REMARK                            x       y       z     vdW  Elec       q    Type
REMARK                         _______ _______ _______ _____ _____    ______ ____
ROOT
ATOM      1  O   HOH     1      34.508  47.623  37.270  0.00  0.00    +0.000 OA
ENDROOT
TORSDOF 0
REMARK  Name = ../refined-set-2016/2zq0/2zq0_pocket.pdb
REMARK  241 active torsions:
REMARK  status: ('A' for Active; 'I' for Inactive)
REMARK    1  A    between atoms: _1  and  _3
REMARK    2  A    between atoms: _3  and  _4
REMARK    3  A    between atoms: _3  and  _6
REMARK    4  A    between atoms: _6  and  _7
REMARK    5  A    between atoms: _10  and  _12
REMARK    6  A    between atoms: _12  and  _13
REMARK    7  A    between atoms: _12  and  _15
REMARK    8  A    between atoms: _15  and  _16
REMARK    9  A    between atoms: _16  and  _17
REMARK   10  A    between atoms: _22  and  _24
REMARK   11  A    between atoms: _24  and  _25
REMARK   12  A    between atoms: _24  and  _27
REMARK   13  A    between atoms: _27  and  _28
REMARK   14  A    between atoms: _28  and  _29
REMARK   15  A    between atoms: _29  and  _31
REMARK   16  A    between atoms: _31  and  CA_598
REMARK   17  A    between atoms: _32  and  _34
REMARK   18  A    between atoms: _34  and  _35
REMARK   19  A    between atoms: _34  and  _37
REMARK   20  A    between atoms: _37  and  _38
REMARK   21  A    between atoms: _42  and  _43
REMARK   22  A    between atoms: _48  and  _50
REMARK   23  A    between atoms: _50  and  _51
REMARK   24  A    between atoms: _50  and  _53
REMARK   25  A    between atoms: _53  and  _54
REMARK   26  A    between atoms: _59  and  _61
REMARK   27  A    between atoms: _61  and  _62
REMARK   28  A    between atoms: _61  and  _64
REMARK   29  A    between atoms: _64  and  _65
REMARK   30  A    between atoms: _67  and  _69
REMARK   31  A    between atoms: _69  and  _70
REMARK   32  A    between atoms: _69  and  _72
REMARK   33  A    between atoms: _72  and  _73
REMARK   34  A    between atoms: _75  and  _77
REMARK   35  A    between atoms: _77  and  _78
REMARK   36  A    between atoms: _77  and  _80
REMARK   37  A    between atoms: _80  and  _81
REMARK   38  A    between atoms: _81  and  _82
REMARK   39  A    between atoms: _87  and  _89
REMARK   40  A    between atoms: _89  and  _90
REMARK   41  A    between atoms: _89  and  _92
REMARK   42  A    between atoms: _92  and  _93
REMARK   43  A    between atoms: _98  and  _99
REMARK   44  A    between atoms: _101  and  _103
REMARK   45  A    between atoms: _103  and  _104
REMARK   46  A    between atoms: _103  and  _106
REMARK   47  A    between atoms: _109  and  _111
REMARK   48  A    between atoms: _111  and  _112
REMARK   49  A    between atoms: _111  and  _114
REMARK   50  A    between atoms: _114  and  _115
REMARK   51  A    between atoms: _125  and  _127
REMARK   52  A    between atoms: _127  and  _128
REMARK   53  A    between atoms: _127  and  _130
REMARK   54  A    between atoms: _130  and  _131
REMARK   55  A    between atoms: _141  and  _143
REMARK   56  A    between atoms: _143  and  _144
REMARK   57  A    between atoms: _143  and  _146
REMARK   58  A    between atoms: _146  and  _147
REMARK   59  A    between atoms: _147  and  _148
REMARK   60  A    between atoms: _150  and  _152
REMARK   61  A    between atoms: _152  and  _153
REMARK   62  A    between atoms: _152  and  _155
REMARK   63  A    between atoms: _155  and  _156
REMARK   64  A    between atoms: _159  and  _161
REMARK   65  A    between atoms: _161  and  _162
REMARK   66  A    between atoms: _161  and  _164
REMARK   67  A    between atoms: _164  and  _165
REMARK   68  A    between atoms: _168  and  _170
REMARK   69  A    between atoms: _170  and  _171
REMARK   70  A    between atoms: _170  and  _173
REMARK   71  A    between atoms: _173  and  _174
REMARK   72  A    between atoms: _184  and  _186
REMARK   73  A    between atoms: _186  and  _187
REMARK   74  A    between atoms: _186  and  _189
REMARK   75  A    between atoms: _189  and  _190
REMARK   76  A    between atoms: _193  and  _195
REMARK   77  A    between atoms: _195  and  _196
REMARK   78  A    between atoms: _195  and  _198
REMARK   79  A    between atoms: _198  and  _199
REMARK   80  A    between atoms: _199  and  _200
REMARK   81  A    between atoms: _203  and  _205
REMARK   82  A    between atoms: _205  and  _206
REMARK   83  A    between atoms: _208  and  _210
REMARK   84  A    between atoms: _210  and  _211
REMARK   85  A    between atoms: _210  and  _213
REMARK   86  A    between atoms: _213  and  _214
REMARK   87  A    between atoms: _224  and  _226
REMARK   88  A    between atoms: _226  and  _227
REMARK   89  A    between atoms: _226  and  _229
REMARK   90  A    between atoms: _229  and  _230
REMARK   91  A    between atoms: _240  and  _242
REMARK   92  A    between atoms: _242  and  _243
REMARK   93  A    between atoms: _242  and  _245
REMARK   94  A    between atoms: _245  and  _246
REMARK   95  A    between atoms: _252  and  _254
REMARK   96  A    between atoms: _254  and  _255
REMARK   97  A    between atoms: _254  and  _257
REMARK   98  A    between atoms: _257  and  _258
REMARK   99  A    between atoms: _264  and  _266
REMARK  100  A    between atoms: _266  and  _267
REMARK  101  A    between atoms: _266  and  _269
REMARK  102  A    between atoms: _269  and  _270
REMARK  103  A    between atoms: _275  and  _277
REMARK  104  A    between atoms: _277  and  _278
REMARK  105  A    between atoms: _277  and  _280
REMARK  106  A    between atoms: _280  and  _281
REMARK  107  A    between atoms: _286  and  _288
REMARK  108  A    between atoms: _288  and  _289
REMARK  109  A    between atoms: _288  and  _291
REMARK  110  A    between atoms: _291  and  _292
REMARK  111  A    between atoms: _292  and  _293
REMARK  112  A    between atoms: _296  and  _298
REMARK  113  A    between atoms: _298  and  _299
REMARK  114  A    between atoms: _298  and  _301
REMARK  115  A    between atoms: _301  and  _302
REMARK  116  A    between atoms: _305  and  _307
REMARK  117  A    between atoms: _307  and  _308
REMARK  118  A    between atoms: _307  and  _310
REMARK  119  A    between atoms: _310  and  _311
REMARK  120  A    between atoms: _313  and  _315
REMARK  121  A    between atoms: _315  and  _316
REMARK  122  A    between atoms: _315  and  _318
REMARK  123  A    between atoms: _318  and  _319
REMARK  124  A    between atoms: _319  and  _320
REMARK  125  A    between atoms: _320  and  _321
REMARK  126  A    between atoms: _321  and  _322
REMARK  127  A    between atoms: _326  and  _328
REMARK  128  A    between atoms: _328  and  _329
REMARK  129  A    between atoms: _328  and  _331
REMARK  130  A    between atoms: _331  and  _332
REMARK  131  A    between atoms: _334  and  _336
REMARK  132  A    between atoms: _336  and  _337
REMARK  133  A    between atoms: _339  and  _341
REMARK  134  A    between atoms: _341  and  _342
REMARK  135  A    between atoms: _341  and  _344
REMARK  136  A    between atoms: _344  and  _345
REMARK  137  A    between atoms: _350  and  _351
REMARK  138  A    between atoms: _353  and  _355
REMARK  139  A    between atoms: _355  and  _356
REMARK  140  A    between atoms: _355  and  _358
REMARK  141  A    between atoms: _361  and  _363
REMARK  142  A    between atoms: _363  and  _364
REMARK  143  A    between atoms: _366  and  _368
REMARK  144  A    between atoms: _368  and  _369
REMARK  145  A    between atoms: _368  and  _371
REMARK  146  A    between atoms: _371  and  _372
REMARK  147  A    between atoms: _377  and  _379
REMARK  148  A    between atoms: _379  and  _380
REMARK  149  A    between atoms: _383  and  _385
REMARK  150  A    between atoms: _385  and  _386
REMARK  151  A    between atoms: _385  and  _388
REMARK  152  A    between atoms: _388  and  _389
REMARK  153  A    between atoms: _394  and  _396
REMARK  154  A    between atoms: _396  and  _397
REMARK  155  A    between atoms: _396  and  _399
REMARK  156  A    between atoms: _399  and  _400
REMARK  157  A    between atoms: _400  and  _401
REMARK  158  A    between atoms: _401  and  _402
REMARK  159  A    between atoms: _402  and  CA_598
REMARK  160  A    between atoms: _404  and  _406
REMARK  161  A    between atoms: _406  and  _407
REMARK  162  A    between atoms: _406  and  _409
REMARK  163  A    between atoms: _409  and  _410
REMARK  164  A    between atoms: _410  and  _411
REMARK  165  A    between atoms: _414  and  _416
REMARK  166  A    between atoms: _416  and  _417
REMARK  167  A    between atoms: _416  and  _419
REMARK  168  A    between atoms: _419  and  _420
REMARK  169  A    between atoms: _422  and  _424
REMARK  170  A    between atoms: _424  and  _425
REMARK  171  A    between atoms: _428  and  _430
REMARK  172  A    between atoms: _430  and  _431
REMARK  173  A    between atoms: _430  and  _433
REMARK  174  A    between atoms: _433  and  _434
REMARK  175  A    between atoms: _434  and  _435
REMARK  176  A    between atoms: _435  and  _436
REMARK  177  A    between atoms: _445  and  _447
REMARK  178  A    between atoms: _447  and  _448
REMARK  179  A    between atoms: _450  and  _452
REMARK  180  A    between atoms: _452  and  _453
REMARK  181  A    between atoms: _452  and  _455
REMARK  182  A    between atoms: _455  and  _456
REMARK  183  A    between atoms: _459  and  _461
REMARK  184  A    between atoms: _461  and  _462
REMARK  185  A    between atoms: _461  and  _464
REMARK  186  A    between atoms: _464  and  _465
REMARK  187  A    between atoms: _465  and  _466
REMARK  188  A    between atoms: _469  and  _471
REMARK  189  A    between atoms: _471  and  _472
REMARK  190  A    between atoms: _471  and  _474
REMARK  191  A    between atoms: _474  and  _475
REMARK  192  A    between atoms: _480  and  _481
REMARK  193  A    between atoms: _483  and  _485
REMARK  194  A    between atoms: _485  and  _486
REMARK  195  A    between atoms: _485  and  _488
REMARK  196  A    between atoms: _488  and  _489
REMARK  197  A    between atoms: _489  and  _490
REMARK  198  A    between atoms: _493  and  _495
REMARK  199  A    between atoms: _495  and  _496
REMARK  200  A    between atoms: _495  and  _498
REMARK  201  A    between atoms: _498  and  _499
REMARK  202  A    between atoms: _501  and  _503
REMARK  203  A    between atoms: _503  and  _504
REMARK  204  A    between atoms: _503  and  _506
REMARK  205  A    between atoms: _506  and  _507
REMARK  206  A    between atoms: _513  and  _515
REMARK  207  A    between atoms: _515  and  _516
REMARK  208  A    between atoms: _518  and  _520
REMARK  209  A    between atoms: _520  and  _521
REMARK  210  A    between atoms: _523  and  _525
REMARK  211  A    between atoms: _525  and  _526
REMARK  212  A    between atoms: _525  and  _528
REMARK  213  A    between atoms: _528  and  _529
REMARK  214  A    between atoms: _532  and  _534
REMARK  215  A    between atoms: _534  and  _535
REMARK  216  A    between atoms: _534  and  _537
REMARK  217  A    between atoms: _537  and  _538
REMARK  218  A    between atoms: _541  and  _543
REMARK  219  A    between atoms: _543  and  _544
REMARK  220  A    between atoms: _547  and  _549
REMARK  221  A    between atoms: _549  and  _550
REMARK  222  A    between atoms: _549  and  _552
REMARK  223  A    between atoms: _552  and  _553
REMARK  224  A    between atoms: _558  and  _560
REMARK  225  A    between atoms: _560  and  _561
REMARK  226  A    between atoms: _560  and  _563
REMARK  227  A    between atoms: _563  and  _564
REMARK  228  A    between atoms: _569  and  _571
REMARK  229  A    between atoms: _571  and  _572
REMARK  230  A    between atoms: _571  and  _574
REMARK  231  A    between atoms: _574  and  _575
REMARK  232  A    between atoms: _577  and  _579
REMARK  233  A    between atoms: _579  and  _580
REMARK  234  A    between atoms: _579  and  _582
REMARK  235  A    between atoms: _582  and  _583
REMARK  236  A    between atoms: _583  and  _584
REMARK  237  A    between atoms: _589  and  _591
REMARK  238  A    between atoms: _591  and  _592
REMARK  239  A    between atoms: _591  and  _594
REMARK  240  A    between atoms: _594  and  _595
REMARK  241  A    between atoms: _595  and  _596
REMARK                            x       y       z     vdW  Elec       q    Type
REMARK                         _______ _______ _______ _____ _____    ______ ____
ROOT
ATOM      1  O   HOH     1      30.435  42.415  41.452  0.00  0.00    +0.000 OA
ENDROOT
TORSDOF 0
REMARK  Name = ../refined-set-2016/2zq0/2zq0_pocket.pdb
REMARK  241 active torsions:
REMARK  status: ('A' for Active; 'I' for Inactive)
REMARK    1  A    between atoms: _1  and  _3
REMARK    2  A    between atoms: _3  and  _4
REMARK    3  A    between atoms: _3  and  _6
REMARK    4  A    between atoms: _6  and  _7
REMARK    5  A    between atoms: _10  and  _12
REMARK    6  A    between atoms: _12  and  _13
REMARK    7  A    between atoms: _12  and  _15
REMARK    8  A    between atoms: _15  and  _16
REMARK    9  A    between atoms: _16  and  _17
REMARK   10  A    between atoms: _22  and  _24
REMARK   11  A    between atoms: _24  and  _25
REMARK   12  A    between atoms: _24  and  _27
REMARK   13  A    between atoms: _27  and  _28
REMARK   14  A    between atoms: _28  and  _29
REMARK   15  A    between atoms: _29  and  _31
REMARK   16  A    between atoms: _31  and  CA_598
REMARK   17  A    between atoms: _32  and  _34
REMARK   18  A    between atoms: _34  and  _35
REMARK   19  A    between atoms: _34  and  _37
REMARK   20  A    between atoms: _37  and  _38
REMARK   21  A    between atoms: _42  and  _43
REMARK   22  A    between atoms: _48  and  _50
REMARK   23  A    between atoms: _50  and  _51
REMARK   24  A    between atoms: _50  and  _53
REMARK   25  A    between atoms: _53  and  _54
REMARK   26  A    between atoms: _59  and  _61
REMARK   27  A    between atoms: _61  and  _62
REMARK   28  A    between atoms: _61  and  _64
REMARK   29  A    between atoms: _64  and  _65
REMARK   30  A    between atoms: _67  and  _69
REMARK   31  A    between atoms: _69  and  _70
REMARK   32  A    between atoms: _69  and  _72
REMARK   33  A    between atoms: _72  and  _73
REMARK   34  A    between atoms: _75  and  _77
REMARK   35  A    between atoms: _77  and  _78
REMARK   36  A    between atoms: _77  and  _80
REMARK   37  A    between atoms: _80  and  _81
REMARK   38  A    between atoms: _81  and  _82
REMARK   39  A    between atoms: _87  and  _89
REMARK   40  A    between atoms: _89  and  _90
REMARK   41  A    between atoms: _89  and  _92
REMARK   42  A    between atoms: _92  and  _93
REMARK   43  A    between atoms: _98  and  _99
REMARK   44  A    between atoms: _101  and  _103
REMARK   45  A    between atoms: _103  and  _104
REMARK   46  A    between atoms: _103  and  _106
REMARK   47  A    between atoms: _109  and  _111
REMARK   48  A    between atoms: _111  and  _112
REMARK   49  A    between atoms: _111  and  _114
REMARK   50  A    between atoms: _114  and  _115
REMARK   51  A    between atoms: _125  and  _127
REMARK   52  A    between atoms: _127  and  _128
REMARK   53  A    between atoms: _127  and  _130
REMARK   54  A    between atoms: _130  and  _131
REMARK   55  A    between atoms: _141  and  _143
REMARK   56  A    between atoms: _143  and  _144
REMARK   57  A    between atoms: _143  and  _146
REMARK   58  A    between atoms: _146  and  _147
REMARK   59  A    between atoms: _147  and  _148
REMARK   60  A    between atoms: _150  and  _152
REMARK   61  A    between atoms: _152  and  _153
REMARK   62  A    between atoms: _152  and  _155
REMARK   63  A    between atoms: _155  and  _156
REMARK   64  A    between atoms: _159  and  _161
REMARK   65  A    between atoms: _161  and  _162
REMARK   66  A    between atoms: _161  and  _164
REMARK   67  A    between atoms: _164  and  _165
REMARK   68  A    between atoms: _168  and  _170
REMARK   69  A    between atoms: _170  and  _171
REMARK   70  A    between atoms: _170  and  _173
REMARK   71  A    between atoms: _173  and  _174
REMARK   72  A    between atoms: _184  and  _186
REMARK   73  A    between atoms: _186  and  _187
REMARK   74  A    between atoms: _186  and  _189
REMARK   75  A    between atoms: _189  and  _190
REMARK   76  A    between atoms: _193  and  _195
REMARK   77  A    between atoms: _195  and  _196
REMARK   78  A    between atoms: _195  and  _198
REMARK   79  A    between atoms: _198  and  _199
REMARK   80  A    between atoms: _199  and  _200
REMARK   81  A    between atoms: _203  and  _205
REMARK   82  A    between atoms: _205  and  _206
REMARK   83  A    between atoms: _208  and  _210
REMARK   84  A    between atoms: _210  and  _211
REMARK   85  A    between atoms: _210  and  _213
REMARK   86  A    between atoms: _213  and  _214
REMARK   87  A    between atoms: _224  and  _226
REMARK   88  A    between atoms: _226  and  _227
REMARK   89  A    between atoms: _226  and  _229
REMARK   90  A    between atoms: _229  and  _230
REMARK   91  A    between atoms: _240  and  _242
REMARK   92  A    between atoms: _242  and  _243
REMARK   93  A    between atoms: _242  and  _245
REMARK   94  A    between atoms: _245  and  _246
REMARK   95  A    between atoms: _252  and  _254
REMARK   96  A    between atoms: _254  and  _255
REMARK   97  A    between atoms: _254  and  _257
REMARK   98  A    between atoms: _257  and  _258
REMARK   99  A    between atoms: _264  and  _266
REMARK  100  A    between atoms: _266  and  _267
REMARK  101  A    between atoms: _266  and  _269
REMARK  102  A    between atoms: _269  and  _270
REMARK  103  A    between atoms: _275  and  _277
REMARK  104  A    between atoms: _277  and  _278
REMARK  105  A    between atoms: _277  and  _280
REMARK  106  A    between atoms: _280  and  _281
REMARK  107  A    between atoms: _286  and  _288
REMARK  108  A    between atoms: _288  and  _289
REMARK  109  A    between atoms: _288  and  _291
REMARK  110  A    between atoms: _291  and  _292
REMARK  111  A    between atoms: _292  and  _293
REMARK  112  A    between atoms: _296  and  _298
REMARK  113  A    between atoms: _298  and  _299
REMARK  114  A    between atoms: _298  and  _301
REMARK  115  A    between atoms: _301  and  _302
REMARK  116  A    between atoms: _305  and  _307
REMARK  117  A    between atoms: _307  and  _308
REMARK  118  A    between atoms: _307  and  _310
REMARK  119  A    between atoms: _310  and  _311
REMARK  120  A    between atoms: _313  and  _315
REMARK  121  A    between atoms: _315  and  _316
REMARK  122  A    between atoms: _315  and  _318
REMARK  123  A    between atoms: _318  and  _319
REMARK  124  A    between atoms: _319  and  _320
REMARK  125  A    between atoms: _320  and  _321
REMARK  126  A    between atoms: _321  and  _322
REMARK  127  A    between atoms: _326  and  _328
REMARK  128  A    between atoms: _328  and  _329
REMARK  129  A    between atoms: _328  and  _331
REMARK  130  A    between atoms: _331  and  _332
REMARK  131  A    between atoms: _334  and  _336
REMARK  132  A    between atoms: _336  and  _337
REMARK  133  A    between atoms: _339  and  _341
REMARK  134  A    between atoms: _341  and  _342
REMARK  135  A    between atoms: _341  and  _344
REMARK  136  A    between atoms: _344  and  _345
REMARK  137  A    between atoms: _350  and  _351
REMARK  138  A    between atoms: _353  and  _355
REMARK  139  A    between atoms: _355  and  _356
REMARK  140  A    between atoms: _355  and  _358
REMARK  141  A    between atoms: _361  and  _363
REMARK  142  A    between atoms: _363  and  _364
REMARK  143  A    between atoms: _366  and  _368
REMARK  144  A    between atoms: _368  and  _369
REMARK  145  A    between atoms: _368  and  _371
REMARK  146  A    between atoms: _371  and  _372
REMARK  147  A    between atoms: _377  and  _379
REMARK  148  A    between atoms: _379  and  _380
REMARK  149  A    between atoms: _383  and  _385
REMARK  150  A    between atoms: _385  and  _386
REMARK  151  A    between atoms: _385  and  _388
REMARK  152  A    between atoms: _388  and  _389
REMARK  153  A    between atoms: _394  and  _396
REMARK  154  A    between atoms: _396  and  _397
REMARK  155  A    between atoms: _396  and  _399
REMARK  156  A    between atoms: _399  and  _400
REMARK  157  A    between atoms: _400  and  _401
REMARK  158  A    between atoms: _401  and  _402
REMARK  159  A    between atoms: _402  and  CA_598
REMARK  160  A    between atoms: _404  and  _406
REMARK  161  A    between atoms: _406  and  _407
REMARK  162  A    between atoms: _406  and  _409
REMARK  163  A    between atoms: _409  and  _410
REMARK  164  A    between atoms: _410  and  _411
REMARK  165  A    between atoms: _414  and  _416
REMARK  166  A    between atoms: _416  and  _417
REMARK  167  A    between atoms: _416  and  _419
REMARK  168  A    between atoms: _419  and  _420
REMARK  169  A    between atoms: _422  and  _424
REMARK  170  A    between atoms: _424  and  _425
REMARK  171  A    between atoms: _428  and  _430
REMARK  172  A    between atoms: _430  and  _431
REMARK  173  A    between atoms: _430  and  _433
REMARK  174  A    between atoms: _433  and  _434
REMARK  175  A    between atoms: _434  and  _435
REMARK  176  A    between atoms: _435  and  _436
REMARK  177  A    between atoms: _445  and  _447
REMARK  178  A    between atoms: _447  and  _448
REMARK  179  A    between atoms: _450  and  _452
REMARK  180  A    between atoms: _452  and  _453
REMARK  181  A    between atoms: _452  and  _455
REMARK  182  A    between atoms: _455  and  _456
REMARK  183  A    between atoms: _459  and  _461
REMARK  184  A    between atoms: _461  and  _462
REMARK  185  A    between atoms: _461  and  _464
REMARK  186  A    between atoms: _464  and  _465
REMARK  187  A    between atoms: _465  and  _466
REMARK  188  A    between atoms: _469  and  _471
REMARK  189  A    between atoms: _471  and  _472
REMARK  190  A    between atoms: _471  and  _474
REMARK  191  A    between atoms: _474  and  _475
REMARK  192  A    between atoms: _480  and  _481
REMARK  193  A    between atoms: _483  and  _485
REMARK  194  A    between atoms: _485  and  _486
REMARK  195  A    between atoms: _485  and  _488
REMARK  196  A    between atoms: _488  and  _489
REMARK  197  A    between atoms: _489  and  _490
REMARK  198  A    between atoms: _493  and  _495
REMARK  199  A    between atoms: _495  and  _496
REMARK  200  A    between atoms: _495  and  _498
REMARK  201  A    between atoms: _498  and  _499
REMARK  202  A    between atoms: _501  and  _503
REMARK  203  A    between atoms: _503  and  _504
REMARK  204  A    between atoms: _503  and  _506
REMARK  205  A    between atoms: _506  and  _507
REMARK  206  A    between atoms: _513  and  _515
REMARK  207  A    between atoms: _515  and  _516
REMARK  208  A    between atoms: _518  and  _520
REMARK  209  A    between atoms: _520  and  _521
REMARK  210  A    between atoms: _523  and  _525
REMARK  211  A    between atoms: _525  and  _526
REMARK  212  A    between atoms: _525  and  _528
REMARK  213  A    between atoms: _528  and  _529
REMARK  214  A    between atoms: _532  and  _534
REMARK  215  A    between atoms: _534  and  _535
REMARK  216  A    between atoms: _534  and  _537
REMARK  217  A    between atoms: _537  and  _538
REMARK  218  A    between atoms: _541  and  _543
REMARK  219  A    between atoms: _543  and  _544
REMARK  220  A    between atoms: _547  and  _549
REMARK  221  A    between atoms: _549  and  _550
REMARK  222  A    between atoms: _549  and  _552
REMARK  223  A    between atoms: _552  and  _553
REMARK  224  A    between atoms: _558  and  _560
REMARK  225  A    between atoms: _560  and  _561
REMARK  226  A    between atoms: _560  and  _563
REMARK  227  A    between atoms: _563  and  _564
REMARK  228  A    between atoms: _569  and  _571
REMARK  229  A    between atoms: _571  and  _572
REMARK  230  A    between atoms: _571  and  _574
REMARK  231  A    between atoms: _574  and  _575
REMARK  232  A    between atoms: _577  and  _579
REMARK  233  A    between atoms: _579  and  _580
REMARK  234  A    between atoms: _579  and  _582
REMARK  235  A    between atoms: _582  and  _583
REMARK  236  A    between atoms: _583  and  _584
REMARK  237  A    between atoms: _589  and  _591
REMARK  238  A    between atoms: _591  and  _592
REMARK  239  A    between atoms: _591  and  _594
REMARK  240  A    between atoms: _594  and  _595
REMARK  241  A    between atoms: _595  and  _596
REMARK                            x       y       z     vdW  Elec       q    Type
REMARK                         _______ _______ _______ _____ _____    ______ ____
ROOT
ATOM      1  O   HOH     1      32.185  49.788  31.229  0.00  0.00    +0.000 OA
ENDROOT
TORSDOF 0
REMARK  Name = ../refined-set-2016/2zq0/2zq0_pocket.pdb
REMARK  241 active torsions:
REMARK  status: ('A' for Active; 'I' for Inactive)
REMARK    1  A    between atoms: _1  and  _3
REMARK    2  A    between atoms: _3  and  _4
REMARK    3  A    between atoms: _3  and  _6
REMARK    4  A    between atoms: _6  and  _7
REMARK    5  A    between atoms: _10  and  _12
REMARK    6  A    between atoms: _12  and  _13
REMARK    7  A    between atoms: _12  and  _15
REMARK    8  A    between atoms: _15  and  _16
REMARK    9  A    between atoms: _16  and  _17
REMARK   10  A    between atoms: _22  and  _24
REMARK   11  A    between atoms: _24  and  _25
REMARK   12  A    between atoms: _24  and  _27
REMARK   13  A    between atoms: _27  and  _28
REMARK   14  A    between atoms: _28  and  _29
REMARK   15  A    between atoms: _29  and  _31
REMARK   16  A    between atoms: _31  and  CA_598
REMARK   17  A    between atoms: _32  and  _34
REMARK   18  A    between atoms: _34  and  _35
REMARK   19  A    between atoms: _34  and  _37
REMARK   20  A    between atoms: _37  and  _38
REMARK   21  A    between atoms: _42  and  _43
REMARK   22  A    between atoms: _48  and  _50
REMARK   23  A    between atoms: _50  and  _51
REMARK   24  A    between atoms: _50  and  _53
REMARK   25  A    between atoms: _53  and  _54
REMARK   26  A    between atoms: _59  and  _61
REMARK   27  A    between atoms: _61  and  _62
REMARK   28  A    between atoms: _61  and  _64
REMARK   29  A    between atoms: _64  and  _65
REMARK   30  A    between atoms: _67  and  _69
REMARK   31  A    between atoms: _69  and  _70
REMARK   32  A    between atoms: _69  and  _72
REMARK   33  A    between atoms: _72  and  _73
REMARK   34  A    between atoms: _75  and  _77
REMARK   35  A    between atoms: _77  and  _78
REMARK   36  A    between atoms: _77  and  _80
REMARK   37  A    between atoms: _80  and  _81
REMARK   38  A    between atoms: _81  and  _82
REMARK   39  A    between atoms: _87  and  _89
REMARK   40  A    between atoms: _89  and  _90
REMARK   41  A    between atoms: _89  and  _92
REMARK   42  A    between atoms: _92  and  _93
REMARK   43  A    between atoms: _98  and  _99
REMARK   44  A    between atoms: _101  and  _103
REMARK   45  A    between atoms: _103  and  _104
REMARK   46  A    between atoms: _103  and  _106
REMARK   47  A    between atoms: _109  and  _111
REMARK   48  A    between atoms: _111  and  _112
REMARK   49  A    between atoms: _111  and  _114
REMARK   50  A    between atoms: _114  and  _115
REMARK   51  A    between atoms: _125  and  _127
REMARK   52  A    between atoms: _127  and  _128
REMARK   53  A    between atoms: _127  and  _130
REMARK   54  A    between atoms: _130  and  _131
REMARK   55  A    between atoms: _141  and  _143
REMARK   56  A    between atoms: _143  and  _144
REMARK   57  A    between atoms: _143  and  _146
REMARK   58  A    between atoms: _146  and  _147
REMARK   59  A    between atoms: _147  and  _148
REMARK   60  A    between atoms: _150  and  _152
REMARK   61  A    between atoms: _152  and  _153
REMARK   62  A    between atoms: _152  and  _155
REMARK   63  A    between atoms: _155  and  _156
REMARK   64  A    between atoms: _159  and  _161
REMARK   65  A    between atoms: _161  and  _162
REMARK   66  A    between atoms: _161  and  _164
REMARK   67  A    between atoms: _164  and  _165
REMARK   68  A    between atoms: _168  and  _170
REMARK   69  A    between atoms: _170  and  _171
REMARK   70  A    between atoms: _170  and  _173
REMARK   71  A    between atoms: _173  and  _174
REMARK   72  A    between atoms: _184  and  _186
REMARK   73  A    between atoms: _186  and  _187
REMARK   74  A    between atoms: _186  and  _189
REMARK   75  A    between atoms: _189  and  _190
REMARK   76  A    between atoms: _193  and  _195
REMARK   77  A    between atoms: _195  and  _196
REMARK   78  A    between atoms: _195  and  _198
REMARK   79  A    between atoms: _198  and  _199
REMARK   80  A    between atoms: _199  and  _200
REMARK   81  A    between atoms: _203  and  _205
REMARK   82  A    between atoms: _205  and  _206
REMARK   83  A    between atoms: _208  and  _210
REMARK   84  A    between atoms: _210  and  _211
REMARK   85  A    between atoms: _210  and  _213
REMARK   86  A    between atoms: _213  and  _214
REMARK   87  A    between atoms: _224  and  _226
REMARK   88  A    between atoms: _226  and  _227
REMARK   89  A    between atoms: _226  and  _229
REMARK   90  A    between atoms: _229  and  _230
REMARK   91  A    between atoms: _240  and  _242
REMARK   92  A    between atoms: _242  and  _243
REMARK   93  A    between atoms: _242  and  _245
REMARK   94  A    between atoms: _245  and  _246
REMARK   95  A    between atoms: _252  and  _254
REMARK   96  A    between atoms: _254  and  _255
REMARK   97  A    between atoms: _254  and  _257
REMARK   98  A    between atoms: _257  and  _258
REMARK   99  A    between atoms: _264  and  _266
REMARK  100  A    between atoms: _266  and  _267
REMARK  101  A    between atoms: _266  and  _269
REMARK  102  A    between atoms: _269  and  _270
REMARK  103  A    between atoms: _275  and  _277
REMARK  104  A    between atoms: _277  and  _278
REMARK  105  A    between atoms: _277  and  _280
REMARK  106  A    between atoms: _280  and  _281
REMARK  107  A    between atoms: _286  and  _288
REMARK  108  A    between atoms: _288  and  _289
REMARK  109  A    between atoms: _288  and  _291
REMARK  110  A    between atoms: _291  and  _292
REMARK  111  A    between atoms: _292  and  _293
REMARK  112  A    between atoms: _296  and  _298
REMARK  113  A    between atoms: _298  and  _299
REMARK  114  A    between atoms: _298  and  _301
REMARK  115  A    between atoms: _301  and  _302
REMARK  116  A    between atoms: _305  and  _307
REMARK  117  A    between atoms: _307  and  _308
REMARK  118  A    between atoms: _307  and  _310
REMARK  119  A    between atoms: _310  and  _311
REMARK  120  A    between atoms: _313  and  _315
REMARK  121  A    between atoms: _315  and  _316
REMARK  122  A    between atoms: _315  and  _318
REMARK  123  A    between atoms: _318  and  _319
REMARK  124  A    between atoms: _319  and  _320
REMARK  125  A    between atoms: _320  and  _321
REMARK  126  A    between atoms: _321  and  _322
REMARK  127  A    between atoms: _326  and  _328
REMARK  128  A    between atoms: _328  and  _329
REMARK  129  A    between atoms: _328  and  _331
REMARK  130  A    between atoms: _331  and  _332
REMARK  131  A    between atoms: _334  and  _336
REMARK  132  A    between atoms: _336  and  _337
REMARK  133  A    between atoms: _339  and  _341
REMARK  134  A    between atoms: _341  and  _342
REMARK  135  A    between atoms: _341  and  _344
REMARK  136  A    between atoms: _344  and  _345
REMARK  137  A    between atoms: _350  and  _351
REMARK  138  A    between atoms: _353  and  _355
REMARK  139  A    between atoms: _355  and  _356
REMARK  140  A    between atoms: _355  and  _358
REMARK  141  A    between atoms: _361  and  _363
REMARK  142  A    between atoms: _363  and  _364
REMARK  143  A    between atoms: _366  and  _368
REMARK  144  A    between atoms: _368  and  _369
REMARK  145  A    between atoms: _368  and  _371
REMARK  146  A    between atoms: _371  and  _372
REMARK  147  A    between atoms: _377  and  _379
REMARK  148  A    between atoms: _379  and  _380
REMARK  149  A    between atoms: _383  and  _385
REMARK  150  A    between atoms: _385  and  _386
REMARK  151  A    between atoms: _385  and  _388
REMARK  152  A    between atoms: _388  and  _389
REMARK  153  A    between atoms: _394  and  _396
REMARK  154  A    between atoms: _396  and  _397
REMARK  155  A    between atoms: _396  and  _399
REMARK  156  A    between atoms: _399  and  _400
REMARK  157  A    between atoms: _400  and  _401
REMARK  158  A    between atoms: _401  and  _402
REMARK  159  A    between atoms: _402  and  CA_598
REMARK  160  A    between atoms: _404  and  _406
REMARK  161  A    between atoms: _406  and  _407
REMARK  162  A    between atoms: _406  and  _409
REMARK  163  A    between atoms: _409  and  _410
REMARK  164  A    between atoms: _410  and  _411
REMARK  165  A    between atoms: _414  and  _416
REMARK  166  A    between atoms: _416  and  _417
REMARK  167  A    between atoms: _416  and  _419
REMARK  168  A    between atoms: _419  and  _420
REMARK  169  A    between atoms: _422  and  _424
REMARK  170  A    between atoms: _424  and  _425
REMARK  171  A    between atoms: _428  and  _430
REMARK  172  A    between atoms: _430  and  _431
REMARK  173  A    between atoms: _430  and  _433
REMARK  174  A    between atoms: _433  and  _434
REMARK  175  A    between atoms: _434  and  _435
REMARK  176  A    between atoms: _435  and  _436
REMARK  177  A    between atoms: _445  and  _447
REMARK  178  A    between atoms: _447  and  _448
REMARK  179  A    between atoms: _450  and  _452
REMARK  180  A    between atoms: _452  and  _453
REMARK  181  A    between atoms: _452  and  _455
REMARK  182  A    between atoms: _455  and  _456
REMARK  183  A    between atoms: _459  and  _461
REMARK  184  A    between atoms: _461  and  _462
REMARK  185  A    between atoms: _461  and  _464
REMARK  186  A    between atoms: _464  and  _465
REMARK  187  A    between atoms: _465  and  _466
REMARK  188  A    between atoms: _469  and  _471
REMARK  189  A    between atoms: _471  and  _472
REMARK  190  A    between atoms: _471  and  _474
REMARK  191  A    between atoms: _474  and  _475
REMARK  192  A    between atoms: _480  and  _481
REMARK  193  A    between atoms: _483  and  _485
REMARK  194  A    between atoms: _485  and  _486
REMARK  195  A    between atoms: _485  and  _488
REMARK  196  A    between atoms: _488  and  _489
REMARK  197  A    between atoms: _489  and  _490
REMARK  198  A    between atoms: _493  and  _495
REMARK  199  A    between atoms: _495  and  _496
REMARK  200  A    between atoms: _495  and  _498
REMARK  201  A    between atoms: _498  and  _499
REMARK  202  A    between atoms: _501  and  _503
REMARK  203  A    between atoms: _503  and  _504
REMARK  204  A    between atoms: _503  and  _506
REMARK  205  A    between atoms: _506  and  _507
REMARK  206  A    between atoms: _513  and  _515
REMARK  207  A    between atoms: _515  and  _516
REMARK  208  A    between atoms: _518  and  _520
REMARK  209  A    between atoms: _520  and  _521
REMARK  210  A    between atoms: _523  and  _525
REMARK  211  A    between atoms: _525  and  _526
REMARK  212  A    between atoms: _525  and  _528
REMARK  213  A    between atoms: _528  and  _529
REMARK  214  A    between atoms: _532  and  _534
REMARK  215  A    between atoms: _534  and  _535
REMARK  216  A    between atoms: _534  and  _537
REMARK  217  A    between atoms: _537  and  _538
REMARK  218  A    between atoms: _541  and  _543
REMARK  219  A    between atoms: _543  and  _544
REMARK  220  A    between atoms: _547  and  _549
REMARK  221  A    between atoms: _549  and  _550
REMARK  222  A    between atoms: _549  and  _552
REMARK  223  A    between atoms: _552  and  _553
REMARK  224  A    between atoms: _558  and  _560
REMARK  225  A    between atoms: _560  and  _561
REMARK  226  A    between atoms: _560  and  _563
REMARK  227  A    between atoms: _563  and  _564
REMARK  228  A    between atoms: _569  and  _571
REMARK  229  A    between atoms: _571  and  _572
REMARK  230  A    between atoms: _571  and  _574
REMARK  231  A    between atoms: _574  and  _575
REMARK  232  A    between atoms: _577  and  _579
REMARK  233  A    between atoms: _579  and  _580
REMARK  234  A    between atoms: _579  and  _582
REMARK  235  A    between atoms: _582  and  _583
REMARK  236  A    between atoms: _583  and  _584
REMARK  237  A    between atoms: _589  and  _591
REMARK  238  A    between atoms: _591  and  _592
REMARK  239  A    between atoms: _591  and  _594
REMARK  240  A    between atoms: _594  and  _595
REMARK  241  A    between atoms: _595  and  _596
REMARK                            x       y       z     vdW  Elec       q    Type
REMARK                         _______ _______ _______ _____ _____    ______ ____
ROOT
ATOM      1  O   HOH     1      33.992  51.080  28.524  0.00  0.00    +0.000 OA
ENDROOT
TORSDOF 0
REMARK  Name = ../refined-set-2016/2zq0/2zq0_pocket.pdb
REMARK  241 active torsions:
REMARK  status: ('A' for Active; 'I' for Inactive)
REMARK    1  A    between atoms: _1  and  _3
REMARK    2  A    between atoms: _3  and  _4
REMARK    3  A    between atoms: _3  and  _6
REMARK    4  A    between atoms: _6  and  _7
REMARK    5  A    between atoms: _10  and  _12
REMARK    6  A    between atoms: _12  and  _13
REMARK    7  A    between atoms: _12  and  _15
REMARK    8  A    between atoms: _15  and  _16
REMARK    9  A    between atoms: _16  and  _17
REMARK   10  A    between atoms: _22  and  _24
REMARK   11  A    between atoms: _24  and  _25
REMARK   12  A    between atoms: _24  and  _27
REMARK   13  A    between atoms: _27  and  _28
REMARK   14  A    between atoms: _28  and  _29
REMARK   15  A    between atoms: _29  and  _31
REMARK   16  A    between atoms: _31  and  CA_598
REMARK   17  A    between atoms: _32  and  _34
REMARK   18  A    between atoms: _34  and  _35
REMARK   19  A    between atoms: _34  and  _37
REMARK   20  A    between atoms: _37  and  _38
REMARK   21  A    between atoms: _42  and  _43
REMARK   22  A    between atoms: _48  and  _50
REMARK   23  A    between atoms: _50  and  _51
REMARK   24  A    between atoms: _50  and  _53
REMARK   25  A    between atoms: _53  and  _54
REMARK   26  A    between atoms: _59  and  _61
REMARK   27  A    between atoms: _61  and  _62
REMARK   28  A    between atoms: _61  and  _64
REMARK   29  A    between atoms: _64  and  _65
REMARK   30  A    between atoms: _67  and  _69
REMARK   31  A    between atoms: _69  and  _70
REMARK   32  A    between atoms: _69  and  _72
REMARK   33  A    between atoms: _72  and  _73
REMARK   34  A    between atoms: _75  and  _77
REMARK   35  A    between atoms: _77  and  _78
REMARK   36  A    between atoms: _77  and  _80
REMARK   37  A    between atoms: _80  and  _81
REMARK   38  A    between atoms: _81  and  _82
REMARK   39  A    between atoms: _87  and  _89
REMARK   40  A    between atoms: _89  and  _90
REMARK   41  A    between atoms: _89  and  _92
REMARK   42  A    between atoms: _92  and  _93
REMARK   43  A    between atoms: _98  and  _99
REMARK   44  A    between atoms: _101  and  _103
REMARK   45  A    between atoms: _103  and  _104
REMARK   46  A    between atoms: _103  and  _106
REMARK   47  A    between atoms: _109  and  _111
REMARK   48  A    between atoms: _111  and  _112
REMARK   49  A    between atoms: _111  and  _114
REMARK   50  A    between atoms: _114  and  _115
REMARK   51  A    between atoms: _125  and  _127
REMARK   52  A    between atoms: _127  and  _128
REMARK   53  A    between atoms: _127  and  _130
REMARK   54  A    between atoms: _130  and  _131
REMARK   55  A    between atoms: _141  and  _143
REMARK   56  A    between atoms: _143  and  _144
REMARK   57  A    between atoms: _143  and  _146
REMARK   58  A    between atoms: _146  and  _147
REMARK   59  A    between atoms: _147  and  _148
REMARK   60  A    between atoms: _150  and  _152
REMARK   61  A    between atoms: _152  and  _153
REMARK   62  A    between atoms: _152  and  _155
REMARK   63  A    between atoms: _155  and  _156
REMARK   64  A    between atoms: _159  and  _161
REMARK   65  A    between atoms: _161  and  _162
REMARK   66  A    between atoms: _161  and  _164
REMARK   67  A    between atoms: _164  and  _165
REMARK   68  A    between atoms: _168  and  _170
REMARK   69  A    between atoms: _170  and  _171
REMARK   70  A    between atoms: _170  and  _173
REMARK   71  A    between atoms: _173  and  _174
REMARK   72  A    between atoms: _184  and  _186
REMARK   73  A    between atoms: _186  and  _187
REMARK   74  A    between atoms: _186  and  _189
REMARK   75  A    between atoms: _189  and  _190
REMARK   76  A    between atoms: _193  and  _195
REMARK   77  A    between atoms: _195  and  _196
REMARK   78  A    between atoms: _195  and  _198
REMARK   79  A    between atoms: _198  and  _199
REMARK   80  A    between atoms: _199  and  _200
REMARK   81  A    between atoms: _203  and  _205
REMARK   82  A    between atoms: _205  and  _206
REMARK   83  A    between atoms: _208  and  _210
REMARK   84  A    between atoms: _210  and  _211
REMARK   85  A    between atoms: _210  and  _213
REMARK   86  A    between atoms: _213  and  _214
REMARK   87  A    between atoms: _224  and  _226
REMARK   88  A    between atoms: _226  and  _227
REMARK   89  A    between atoms: _226  and  _229
REMARK   90  A    between atoms: _229  and  _230
REMARK   91  A    between atoms: _240  and  _242
REMARK   92  A    between atoms: _242  and  _243
REMARK   93  A    between atoms: _242  and  _245
REMARK   94  A    between atoms: _245  and  _246
REMARK   95  A    between atoms: _252  and  _254
REMARK   96  A    between atoms: _254  and  _255
REMARK   97  A    between atoms: _254  and  _257
REMARK   98  A    between atoms: _257  and  _258
REMARK   99  A    between atoms: _264  and  _266
REMARK  100  A    between atoms: _266  and  _267
REMARK  101  A    between atoms: _266  and  _269
REMARK  102  A    between atoms: _269  and  _270
REMARK  103  A    between atoms: _275  and  _277
REMARK  104  A    between atoms: _277  and  _278
REMARK  105  A    between atoms: _277  and  _280
REMARK  106  A    between atoms: _280  and  _281
REMARK  107  A    between atoms: _286  and  _288
REMARK  108  A    between atoms: _288  and  _289
REMARK  109  A    between atoms: _288  and  _291
REMARK  110  A    between atoms: _291  and  _292
REMARK  111  A    between atoms: _292  and  _293
REMARK  112  A    between atoms: _296  and  _298
REMARK  113  A    between atoms: _298  and  _299
REMARK  114  A    between atoms: _298  and  _301
REMARK  115  A    between atoms: _301  and  _302
REMARK  116  A    between atoms: _305  and  _307
REMARK  117  A    between atoms: _307  and  _308
REMARK  118  A    between atoms: _307  and  _310
REMARK  119  A    between atoms: _310  and  _311
REMARK  120  A    between atoms: _313  and  _315
REMARK  121  A    between atoms: _315  and  _316
REMARK  122  A    between atoms: _315  and  _318
REMARK  123  A    between atoms: _318  and  _319
REMARK  124  A    between atoms: _319  and  _320
REMARK  125  A    between atoms: _320  and  _321
REMARK  126  A    between atoms: _321  and  _322
REMARK  127  A    between atoms: _326  and  _328
REMARK  128  A    between atoms: _328  and  _329
REMARK  129  A    between atoms: _328  and  _331
REMARK  130  A    between atoms: _331  and  _332
REMARK  131  A    between atoms: _334  and  _336
REMARK  132  A    between atoms: _336  and  _337
REMARK  133  A    between atoms: _339  and  _341
REMARK  134  A    between atoms: _341  and  _342
REMARK  135  A    between atoms: _341  and  _344
REMARK  136  A    between atoms: _344  and  _345
REMARK  137  A    between atoms: _350  and  _351
REMARK  138  A    between atoms: _353  and  _355
REMARK  139  A    between atoms: _355  and  _356
REMARK  140  A    between atoms: _355  and  _358
REMARK  141  A    between atoms: _361  and  _363
REMARK  142  A    between atoms: _363  and  _364
REMARK  143  A    between atoms: _366  and  _368
REMARK  144  A    between atoms: _368  and  _369
REMARK  145  A    between atoms: _368  and  _371
REMARK  146  A    between atoms: _371  and  _372
REMARK  147  A    between atoms: _377  and  _379
REMARK  148  A    between atoms: _379  and  _380
REMARK  149  A    between atoms: _383  and  _385
REMARK  150  A    between atoms: _385  and  _386
REMARK  151  A    between atoms: _385  and  _388
REMARK  152  A    between atoms: _388  and  _389
REMARK  153  A    between atoms: _394  and  _396
REMARK  154  A    between atoms: _396  and  _397
REMARK  155  A    between atoms: _396  and  _399
REMARK  156  A    between atoms: _399  and  _400
REMARK  157  A    between atoms: _400  and  _401
REMARK  158  A    between atoms: _401  and  _402
REMARK  159  A    between atoms: _402  and  CA_598
REMARK  160  A    between atoms: _404  and  _406
REMARK  161  A    between atoms: _406  and  _407
REMARK  162  A    between atoms: _406  and  _409
REMARK  163  A    between atoms: _409  and  _410
REMARK  164  A    between atoms: _410  and  _411
REMARK  165  A    between atoms: _414  and  _416
REMARK  166  A    between atoms: _416  and  _417
REMARK  167  A    between atoms: _416  and  _419
REMARK  168  A    between atoms: _419  and  _420
REMARK  169  A    between atoms: _422  and  _424
REMARK  170  A    between atoms: _424  and  _425
REMARK  171  A    between atoms: _428  and  _430
REMARK  172  A    between atoms: _430  and  _431
REMARK  173  A    between atoms: _430  and  _433
REMARK  174  A    between atoms: _433  and  _434
REMARK  175  A    between atoms: _434  and  _435
REMARK  176  A    between atoms: _435  and  _436
REMARK  177  A    between atoms: _445  and  _447
REMARK  178  A    between atoms: _447  and  _448
REMARK  179  A    between atoms: _450  and  _452
REMARK  180  A    between atoms: _452  and  _453
REMARK  181  A    between atoms: _452  and  _455
REMARK  182  A    between atoms: _455  and  _456
REMARK  183  A    between atoms: _459  and  _461
REMARK  184  A    between atoms: _461  and  _462
REMARK  185  A    between atoms: _461  and  _464
REMARK  186  A    between atoms: _464  and  _465
REMARK  187  A    between atoms: _465  and  _466
REMARK  188  A    between atoms: _469  and  _471
REMARK  189  A    between atoms: _471  and  _472
REMARK  190  A    between atoms: _471  and  _474
REMARK  191  A    between atoms: _474  and  _475
REMARK  192  A    between atoms: _480  and  _481
REMARK  193  A    between atoms: _483  and  _485
REMARK  194  A    between atoms: _485  and  _486
REMARK  195  A    between atoms: _485  and  _488
REMARK  196  A    between atoms: _488  and  _489
REMARK  197  A    between atoms: _489  and  _490
REMARK  198  A    between atoms: _493  and  _495
REMARK  199  A    between atoms: _495  and  _496
REMARK  200  A    between atoms: _495  and  _498
REMARK  201  A    between atoms: _498  and  _499
REMARK  202  A    between atoms: _501  and  _503
REMARK  203  A    between atoms: _503  and  _504
REMARK  204  A    between atoms: _503  and  _506
REMARK  205  A    between atoms: _506  and  _507
REMARK  206  A    between atoms: _513  and  _515
REMARK  207  A    between atoms: _515  and  _516
REMARK  208  A    between atoms: _518  and  _520
REMARK  209  A    between atoms: _520  and  _521
REMARK  210  A    between atoms: _523  and  _525
REMARK  211  A    between atoms: _525  and  _526
REMARK  212  A    between atoms: _525  and  _528
REMARK  213  A    between atoms: _528  and  _529
REMARK  214  A    between atoms: _532  and  _534
REMARK  215  A    between atoms: _534  and  _535
REMARK  216  A    between atoms: _534  and  _537
REMARK  217  A    between atoms: _537  and  _538
REMARK  218  A    between atoms: _541  and  _543
REMARK  219  A    between atoms: _543  and  _544
REMARK  220  A    between atoms: _547  and  _549
REMARK  221  A    between atoms: _549  and  _550
REMARK  222  A    between atoms: _549  and  _552
REMARK  223  A    between atoms: _552  and  _553
REMARK  224  A    between atoms: _558  and  _560
REMARK  225  A    between atoms: _560  and  _561
REMARK  226  A    between atoms: _560  and  _563
REMARK  227  A    between atoms: _563  and  _564
REMARK  228  A    between atoms: _569  and  _571
REMARK  229  A    between atoms: _571  and  _572
REMARK  230  A    between atoms: _571  and  _574
REMARK  231  A    between atoms: _574  and  _575
REMARK  232  A    between atoms: _577  and  _579
REMARK  233  A    between atoms: _579  and  _580
REMARK  234  A    between atoms: _579  and  _582
REMARK  235  A    between atoms: _582  and  _583
REMARK  236  A    between atoms: _583  and  _584
REMARK  237  A    between atoms: _589  and  _591
REMARK  238  A    between atoms: _591  and  _592
REMARK  239  A    between atoms: _591  and  _594
REMARK  240  A    between atoms: _594  and  _595
REMARK  241  A    between atoms: _595  and  _596
REMARK                            x       y       z     vdW  Elec       q    Type
REMARK                         _______ _______ _______ _____ _____    ______ ____
ROOT
ATOM      1  O   HOH     1      39.211  57.602  36.620  0.00  0.00    +0.000 OA
ENDROOT
TORSDOF 0
REMARK  Name = ../refined-set-2016/2zq0/2zq0_pocket.pdb
REMARK  241 active torsions:
REMARK  status: ('A' for Active; 'I' for Inactive)
REMARK    1  A    between atoms: _1  and  _3
REMARK    2  A    between atoms: _3  and  _4
REMARK    3  A    between atoms: _3  and  _6
REMARK    4  A    between atoms: _6  and  _7
REMARK    5  A    between atoms: _10  and  _12
REMARK    6  A    between atoms: _12  and  _13
REMARK    7  A    between atoms: _12  and  _15
REMARK    8  A    between atoms: _15  and  _16
REMARK    9  A    between atoms: _16  and  _17
REMARK   10  A    between atoms: _22  and  _24
REMARK   11  A    between atoms: _24  and  _25
REMARK   12  A    between atoms: _24  and  _27
REMARK   13  A    between atoms: _27  and  _28
REMARK   14  A    between atoms: _28  and  _29
REMARK   15  A    between atoms: _29  and  _31
REMARK   16  A    between atoms: _31  and  CA_598
REMARK   17  A    between atoms: _32  and  _34
REMARK   18  A    between atoms: _34  and  _35
REMARK   19  A    between atoms: _34  and  _37
REMARK   20  A    between atoms: _37  and  _38
REMARK   21  A    between atoms: _42  and  _43
REMARK   22  A    between atoms: _48  and  _50
REMARK   23  A    between atoms: _50  and  _51
REMARK   24  A    between atoms: _50  and  _53
REMARK   25  A    between atoms: _53  and  _54
REMARK   26  A    between atoms: _59  and  _61
REMARK   27  A    between atoms: _61  and  _62
REMARK   28  A    between atoms: _61  and  _64
REMARK   29  A    between atoms: _64  and  _65
REMARK   30  A    between atoms: _67  and  _69
REMARK   31  A    between atoms: _69  and  _70
REMARK   32  A    between atoms: _69  and  _72
REMARK   33  A    between atoms: _72  and  _73
REMARK   34  A    between atoms: _75  and  _77
REMARK   35  A    between atoms: _77  and  _78
REMARK   36  A    between atoms: _77  and  _80
REMARK   37  A    between atoms: _80  and  _81
REMARK   38  A    between atoms: _81  and  _82
REMARK   39  A    between atoms: _87  and  _89
REMARK   40  A    between atoms: _89  and  _90
REMARK   41  A    between atoms: _89  and  _92
REMARK   42  A    between atoms: _92  and  _93
REMARK   43  A    between atoms: _98  and  _99
REMARK   44  A    between atoms: _101  and  _103
REMARK   45  A    between atoms: _103  and  _104
REMARK   46  A    between atoms: _103  and  _106
REMARK   47  A    between atoms: _109  and  _111
REMARK   48  A    between atoms: _111  and  _112
REMARK   49  A    between atoms: _111  and  _114
REMARK   50  A    between atoms: _114  and  _115
REMARK   51  A    between atoms: _125  and  _127
REMARK   52  A    between atoms: _127  and  _128
REMARK   53  A    between atoms: _127  and  _130
REMARK   54  A    between atoms: _130  and  _131
REMARK   55  A    between atoms: _141  and  _143
REMARK   56  A    between atoms: _143  and  _144
REMARK   57  A    between atoms: _143  and  _146
REMARK   58  A    between atoms: _146  and  _147
REMARK   59  A    between atoms: _147  and  _148
REMARK   60  A    between atoms: _150  and  _152
REMARK   61  A    between atoms: _152  and  _153
REMARK   62  A    between atoms: _152  and  _155
REMARK   63  A    between atoms: _155  and  _156
REMARK   64  A    between atoms: _159  and  _161
REMARK   65  A    between atoms: _161  and  _162
REMARK   66  A    between atoms: _161  and  _164
REMARK   67  A    between atoms: _164  and  _165
REMARK   68  A    between atoms: _168  and  _170
REMARK   69  A    between atoms: _170  and  _171
REMARK   70  A    between atoms: _170  and  _173
REMARK   71  A    between atoms: _173  and  _174
REMARK   72  A    between atoms: _184  and  _186
REMARK   73  A    between atoms: _186  and  _187
REMARK   74  A    between atoms: _186  and  _189
REMARK   75  A    between atoms: _189  and  _190
REMARK   76  A    between atoms: _193  and  _195
REMARK   77  A    between atoms: _195  and  _196
REMARK   78  A    between atoms: _195  and  _198
REMARK   79  A    between atoms: _198  and  _199
REMARK   80  A    between atoms: _199  and  _200
REMARK   81  A    between atoms: _203  and  _205
REMARK   82  A    between atoms: _205  and  _206
REMARK   83  A    between atoms: _208  and  _210
REMARK   84  A    between atoms: _210  and  _211
REMARK   85  A    between atoms: _210  and  _213
REMARK   86  A    between atoms: _213  and  _214
REMARK   87  A    between atoms: _224  and  _226
REMARK   88  A    between atoms: _226  and  _227
REMARK   89  A    between atoms: _226  and  _229
REMARK   90  A    between atoms: _229  and  _230
REMARK   91  A    between atoms: _240  and  _242
REMARK   92  A    between atoms: _242  and  _243
REMARK   93  A    between atoms: _242  and  _245
REMARK   94  A    between atoms: _245  and  _246
REMARK   95  A    between atoms: _252  and  _254
REMARK   96  A    between atoms: _254  and  _255
REMARK   97  A    between atoms: _254  and  _257
REMARK   98  A    between atoms: _257  and  _258
REMARK   99  A    between atoms: _264  and  _266
REMARK  100  A    between atoms: _266  and  _267
REMARK  101  A    between atoms: _266  and  _269
REMARK  102  A    between atoms: _269  and  _270
REMARK  103  A    between atoms: _275  and  _277
REMARK  104  A    between atoms: _277  and  _278
REMARK  105  A    between atoms: _277  and  _280
REMARK  106  A    between atoms: _280  and  _281
REMARK  107  A    between atoms: _286  and  _288
REMARK  108  A    between atoms: _288  and  _289
REMARK  109  A    between atoms: _288  and  _291
REMARK  110  A    between atoms: _291  and  _292
REMARK  111  A    between atoms: _292  and  _293
REMARK  112  A    between atoms: _296  and  _298
REMARK  113  A    between atoms: _298  and  _299
REMARK  114  A    between atoms: _298  and  _301
REMARK  115  A    between atoms: _301  and  _302
REMARK  116  A    between atoms: _305  and  _307
REMARK  117  A    between atoms: _307  and  _308
REMARK  118  A    between atoms: _307  and  _310
REMARK  119  A    between atoms: _310  and  _311
REMARK  120  A    between atoms: _313  and  _315
REMARK  121  A    between atoms: _315  and  _316
REMARK  122  A    between atoms: _315  and  _318
REMARK  123  A    between atoms: _318  and  _319
REMARK  124  A    between atoms: _319  and  _320
REMARK  125  A    between atoms: _320  and  _321
REMARK  126  A    between atoms: _321  and  _322
REMARK  127  A    between atoms: _326  and  _328
REMARK  128  A    between atoms: _328  and  _329
REMARK  129  A    between atoms: _328  and  _331
REMARK  130  A    between atoms: _331  and  _332
REMARK  131  A    between atoms: _334  and  _336
REMARK  132  A    between atoms: _336  and  _337
REMARK  133  A    between atoms: _339  and  _341
REMARK  134  A    between atoms: _341  and  _342
REMARK  135  A    between atoms: _341  and  _344
REMARK  136  A    between atoms: _344  and  _345
REMARK  137  A    between atoms: _350  and  _351
REMARK  138  A    between atoms: _353  and  _355
REMARK  139  A    between atoms: _355  and  _356
REMARK  140  A    between atoms: _355  and  _358
REMARK  141  A    between atoms: _361  and  _363
REMARK  142  A    between atoms: _363  and  _364
REMARK  143  A    between atoms: _366  and  _368
REMARK  144  A    between atoms: _368  and  _369
REMARK  145  A    between atoms: _368  and  _371
REMARK  146  A    between atoms: _371  and  _372
REMARK  147  A    between atoms: _377  and  _379
REMARK  148  A    between atoms: _379  and  _380
REMARK  149  A    between atoms: _383  and  _385
REMARK  150  A    between atoms: _385  and  _386
REMARK  151  A    between atoms: _385  and  _388
REMARK  152  A    between atoms: _388  and  _389
REMARK  153  A    between atoms: _394  and  _396
REMARK  154  A    between atoms: _396  and  _397
REMARK  155  A    between atoms: _396  and  _399
REMARK  156  A    between atoms: _399  and  _400
REMARK  157  A    between atoms: _400  and  _401
REMARK  158  A    between atoms: _401  and  _402
REMARK  159  A    between atoms: _402  and  CA_598
REMARK  160  A    between atoms: _404  and  _406
REMARK  161  A    between atoms: _406  and  _407
REMARK  162  A    between atoms: _406  and  _409
REMARK  163  A    between atoms: _409  and  _410
REMARK  164  A    between atoms: _410  and  _411
REMARK  165  A    between atoms: _414  and  _416
REMARK  166  A    between atoms: _416  and  _417
REMARK  167  A    between atoms: _416  and  _419
REMARK  168  A    between atoms: _419  and  _420
REMARK  169  A    between atoms: _422  and  _424
REMARK  170  A    between atoms: _424  and  _425
REMARK  171  A    between atoms: _428  and  _430
REMARK  172  A    between atoms: _430  and  _431
REMARK  173  A    between atoms: _430  and  _433
REMARK  174  A    between atoms: _433  and  _434
REMARK  175  A    between atoms: _434  and  _435
REMARK  176  A    between atoms: _435  and  _436
REMARK  177  A    between atoms: _445  and  _447
REMARK  178  A    between atoms: _447  and  _448
REMARK  179  A    between atoms: _450  and  _452
REMARK  180  A    between atoms: _452  and  _453
REMARK  181  A    between atoms: _452  and  _455
REMARK  182  A    between atoms: _455  and  _456
REMARK  183  A    between atoms: _459  and  _461
REMARK  184  A    between atoms: _461  and  _462
REMARK  185  A    between atoms: _461  and  _464
REMARK  186  A    between atoms: _464  and  _465
REMARK  187  A    between atoms: _465  and  _466
REMARK  188  A    between atoms: _469  and  _471
REMARK  189  A    between atoms: _471  and  _472
REMARK  190  A    between atoms: _471  and  _474
REMARK  191  A    between atoms: _474  and  _475
REMARK  192  A    between atoms: _480  and  _481
REMARK  193  A    between atoms: _483  and  _485
REMARK  194  A    between atoms: _485  and  _486
REMARK  195  A    between atoms: _485  and  _488
REMARK  196  A    between atoms: _488  and  _489
REMARK  197  A    between atoms: _489  and  _490
REMARK  198  A    between atoms: _493  and  _495
REMARK  199  A    between atoms: _495  and  _496
REMARK  200  A    between atoms: _495  and  _498
REMARK  201  A    between atoms: _498  and  _499
REMARK  202  A    between atoms: _501  and  _503
REMARK  203  A    between atoms: _503  and  _504
REMARK  204  A    between atoms: _503  and  _506
REMARK  205  A    between atoms: _506  and  _507
REMARK  206  A    between atoms: _513  and  _515
REMARK  207  A    between atoms: _515  and  _516
REMARK  208  A    between atoms: _518  and  _520
REMARK  209  A    between atoms: _520  and  _521
REMARK  210  A    between atoms: _523  and  _525
REMARK  211  A    between atoms: _525  and  _526
REMARK  212  A    between atoms: _525  and  _528
REMARK  213  A    between atoms: _528  and  _529
REMARK  214  A    between atoms: _532  and  _534
REMARK  215  A    between atoms: _534  and  _535
REMARK  216  A    between atoms: _534  and  _537
REMARK  217  A    between atoms: _537  and  _538
REMARK  218  A    between atoms: _541  and  _543
REMARK  219  A    between atoms: _543  and  _544
REMARK  220  A    between atoms: _547  and  _549
REMARK  221  A    between atoms: _549  and  _550
REMARK  222  A    between atoms: _549  and  _552
REMARK  223  A    between atoms: _552  and  _553
REMARK  224  A    between atoms: _558  and  _560
REMARK  225  A    between atoms: _560  and  _561
REMARK  226  A    between atoms: _560  and  _563
REMARK  227  A    between atoms: _563  and  _564
REMARK  228  A    between atoms: _569  and  _571
REMARK  229  A    between atoms: _571  and  _572
REMARK  230  A    between atoms: _571  and  _574
REMARK  231  A    between atoms: _574  and  _575
REMARK  232  A    between atoms: _577  and  _579
REMARK  233  A    between atoms: _579  and  _580
REMARK  234  A    between atoms: _579  and  _582
REMARK  235  A    between atoms: _582  and  _583
REMARK  236  A    between atoms: _583  and  _584
REMARK  237  A    between atoms: _589  and  _591
REMARK  238  A    between atoms: _591  and  _592
REMARK  239  A    between atoms: _591  and  _594
REMARK  240  A    between atoms: _594  and  _595
REMARK  241  A    between atoms: _595  and  _596
REMARK                            x       y       z     vdW  Elec       q    Type
REMARK                         _______ _______ _______ _____ _____    ______ ____
ROOT
ATOM      1  O   HOH     1      31.345  50.409  28.652  0.00  0.00    +0.000 OA
ENDROOT
TORSDOF 0
REMARK  Name = ../refined-set-2016/2zq0/2zq0_pocket.pdb
REMARK  241 active torsions:
REMARK  status: ('A' for Active; 'I' for Inactive)
REMARK    1  A    between atoms: _1  and  _3
REMARK    2  A    between atoms: _3  and  _4
REMARK    3  A    between atoms: _3  and  _6
REMARK    4  A    between atoms: _6  and  _7
REMARK    5  A    between atoms: _10  and  _12
REMARK    6  A    between atoms: _12  and  _13
REMARK    7  A    between atoms: _12  and  _15
REMARK    8  A    between atoms: _15  and  _16
REMARK    9  A    between atoms: _16  and  _17
REMARK   10  A    between atoms: _22  and  _24
REMARK   11  A    between atoms: _24  and  _25
REMARK   12  A    between atoms: _24  and  _27
REMARK   13  A    between atoms: _27  and  _28
REMARK   14  A    between atoms: _28  and  _29
REMARK   15  A    between atoms: _29  and  _31
REMARK   16  A    between atoms: _31  and  CA_598
REMARK   17  A    between atoms: _32  and  _34
REMARK   18  A    between atoms: _34  and  _35
REMARK   19  A    between atoms: _34  and  _37
REMARK   20  A    between atoms: _37  and  _38
REMARK   21  A    between atoms: _42  and  _43
REMARK   22  A    between atoms: _48  and  _50
REMARK   23  A    between atoms: _50  and  _51
REMARK   24  A    between atoms: _50  and  _53
REMARK   25  A    between atoms: _53  and  _54
REMARK   26  A    between atoms: _59  and  _61
REMARK   27  A    between atoms: _61  and  _62
REMARK   28  A    between atoms: _61  and  _64
REMARK   29  A    between atoms: _64  and  _65
REMARK   30  A    between atoms: _67  and  _69
REMARK   31  A    between atoms: _69  and  _70
REMARK   32  A    between atoms: _69  and  _72
REMARK   33  A    between atoms: _72  and  _73
REMARK   34  A    between atoms: _75  and  _77
REMARK   35  A    between atoms: _77  and  _78
REMARK   36  A    between atoms: _77  and  _80
REMARK   37  A    between atoms: _80  and  _81
REMARK   38  A    between atoms: _81  and  _82
REMARK   39  A    between atoms: _87  and  _89
REMARK   40  A    between atoms: _89  and  _90
REMARK   41  A    between atoms: _89  and  _92
REMARK   42  A    between atoms: _92  and  _93
REMARK   43  A    between atoms: _98  and  _99
REMARK   44  A    between atoms: _101  and  _103
REMARK   45  A    between atoms: _103  and  _104
REMARK   46  A    between atoms: _103  and  _106
REMARK   47  A    between atoms: _109  and  _111
REMARK   48  A    between atoms: _111  and  _112
REMARK   49  A    between atoms: _111  and  _114
REMARK   50  A    between atoms: _114  and  _115
REMARK   51  A    between atoms: _125  and  _127
REMARK   52  A    between atoms: _127  and  _128
REMARK   53  A    between atoms: _127  and  _130
REMARK   54  A    between atoms: _130  and  _131
REMARK   55  A    between atoms: _141  and  _143
REMARK   56  A    between atoms: _143  and  _144
REMARK   57  A    between atoms: _143  and  _146
REMARK   58  A    between atoms: _146  and  _147
REMARK   59  A    between atoms: _147  and  _148
REMARK   60  A    between atoms: _150  and  _152
REMARK   61  A    between atoms: _152  and  _153
REMARK   62  A    between atoms: _152  and  _155
REMARK   63  A    between atoms: _155  and  _156
REMARK   64  A    between atoms: _159  and  _161
REMARK   65  A    between atoms: _161  and  _162
REMARK   66  A    between atoms: _161  and  _164
REMARK   67  A    between atoms: _164  and  _165
REMARK   68  A    between atoms: _168  and  _170
REMARK   69  A    between atoms: _170  and  _171
REMARK   70  A    between atoms: _170  and  _173
REMARK   71  A    between atoms: _173  and  _174
REMARK   72  A    between atoms: _184  and  _186
REMARK   73  A    between atoms: _186  and  _187
REMARK   74  A    between atoms: _186  and  _189
REMARK   75  A    between atoms: _189  and  _190
REMARK   76  A    between atoms: _193  and  _195
REMARK   77  A    between atoms: _195  and  _196
REMARK   78  A    between atoms: _195  and  _198
REMARK   79  A    between atoms: _198  and  _199
REMARK   80  A    between atoms: _199  and  _200
REMARK   81  A    between atoms: _203  and  _205
REMARK   82  A    between atoms: _205  and  _206
REMARK   83  A    between atoms: _208  and  _210
REMARK   84  A    between atoms: _210  and  _211
REMARK   85  A    between atoms: _210  and  _213
REMARK   86  A    between atoms: _213  and  _214
REMARK   87  A    between atoms: _224  and  _226
REMARK   88  A    between atoms: _226  and  _227
REMARK   89  A    between atoms: _226  and  _229
REMARK   90  A    between atoms: _229  and  _230
REMARK   91  A    between atoms: _240  and  _242
REMARK   92  A    between atoms: _242  and  _243
REMARK   93  A    between atoms: _242  and  _245
REMARK   94  A    between atoms: _245  and  _246
REMARK   95  A    between atoms: _252  and  _254
REMARK   96  A    between atoms: _254  and  _255
REMARK   97  A    between atoms: _254  and  _257
REMARK   98  A    between atoms: _257  and  _258
REMARK   99  A    between atoms: _264  and  _266
REMARK  100  A    between atoms: _266  and  _267
REMARK  101  A    between atoms: _266  and  _269
REMARK  102  A    between atoms: _269  and  _270
REMARK  103  A    between atoms: _275  and  _277
REMARK  104  A    between atoms: _277  and  _278
REMARK  105  A    between atoms: _277  and  _280
REMARK  106  A    between atoms: _280  and  _281
REMARK  107  A    between atoms: _286  and  _288
REMARK  108  A    between atoms: _288  and  _289
REMARK  109  A    between atoms: _288  and  _291
REMARK  110  A    between atoms: _291  and  _292
REMARK  111  A    between atoms: _292  and  _293
REMARK  112  A    between atoms: _296  and  _298
REMARK  113  A    between atoms: _298  and  _299
REMARK  114  A    between atoms: _298  and  _301
REMARK  115  A    between atoms: _301  and  _302
REMARK  116  A    between atoms: _305  and  _307
REMARK  117  A    between atoms: _307  and  _308
REMARK  118  A    between atoms: _307  and  _310
REMARK  119  A    between atoms: _310  and  _311
REMARK  120  A    between atoms: _313  and  _315
REMARK  121  A    between atoms: _315  and  _316
REMARK  122  A    between atoms: _315  and  _318
REMARK  123  A    between atoms: _318  and  _319
REMARK  124  A    between atoms: _319  and  _320
REMARK  125  A    between atoms: _320  and  _321
REMARK  126  A    between atoms: _321  and  _322
REMARK  127  A    between atoms: _326  and  _328
REMARK  128  A    between atoms: _328  and  _329
REMARK  129  A    between atoms: _328  and  _331
REMARK  130  A    between atoms: _331  and  _332
REMARK  131  A    between atoms: _334  and  _336
REMARK  132  A    between atoms: _336  and  _337
REMARK  133  A    between atoms: _339  and  _341
REMARK  134  A    between atoms: _341  and  _342
REMARK  135  A    between atoms: _341  and  _344
REMARK  136  A    between atoms: _344  and  _345
REMARK  137  A    between atoms: _350  and  _351
REMARK  138  A    between atoms: _353  and  _355
REMARK  139  A    between atoms: _355  and  _356
REMARK  140  A    between atoms: _355  and  _358
REMARK  141  A    between atoms: _361  and  _363
REMARK  142  A    between atoms: _363  and  _364
REMARK  143  A    between atoms: _366  and  _368
REMARK  144  A    between atoms: _368  and  _369
REMARK  145  A    between atoms: _368  and  _371
REMARK  146  A    between atoms: _371  and  _372
REMARK  147  A    between atoms: _377  and  _379
REMARK  148  A    between atoms: _379  and  _380
REMARK  149  A    between atoms: _383  and  _385
REMARK  150  A    between atoms: _385  and  _386
REMARK  151  A    between atoms: _385  and  _388
REMARK  152  A    between atoms: _388  and  _389
REMARK  153  A    between atoms: _394  and  _396
REMARK  154  A    between atoms: _396  and  _397
REMARK  155  A    between atoms: _396  and  _399
REMARK  156  A    between atoms: _399  and  _400
REMARK  157  A    between atoms: _400  and  _401
REMARK  158  A    between atoms: _401  and  _402
REMARK  159  A    between atoms: _402  and  CA_598
REMARK  160  A    between atoms: _404  and  _406
REMARK  161  A    between atoms: _406  and  _407
REMARK  162  A    between atoms: _406  and  _409
REMARK  163  A    between atoms: _409  and  _410
REMARK  164  A    between atoms: _410  and  _411
REMARK  165  A    between atoms: _414  and  _416
REMARK  166  A    between atoms: _416  and  _417
REMARK  167  A    between atoms: _416  and  _419
REMARK  168  A    between atoms: _419  and  _420
REMARK  169  A    between atoms: _422  and  _424
REMARK  170  A    between atoms: _424  and  _425
REMARK  171  A    between atoms: _428  and  _430
REMARK  172  A    between atoms: _430  and  _431
REMARK  173  A    between atoms: _430  and  _433
REMARK  174  A    between atoms: _433  and  _434
REMARK  175  A    between atoms: _434  and  _435
REMARK  176  A    between atoms: _435  and  _436
REMARK  177  A    between atoms: _445  and  _447
REMARK  178  A    between atoms: _447  and  _448
REMARK  179  A    between atoms: _450  and  _452
REMARK  180  A    between atoms: _452  and  _453
REMARK  181  A    between atoms: _452  and  _455
REMARK  182  A    between atoms: _455  and  _456
REMARK  183  A    between atoms: _459  and  _461
REMARK  184  A    between atoms: _461  and  _462
REMARK  185  A    between atoms: _461  and  _464
REMARK  186  A    between atoms: _464  and  _465
REMARK  187  A    between atoms: _465  and  _466
REMARK  188  A    between atoms: _469  and  _471
REMARK  189  A    between atoms: _471  and  _472
REMARK  190  A    between atoms: _471  and  _474
REMARK  191  A    between atoms: _474  and  _475
REMARK  192  A    between atoms: _480  and  _481
REMARK  193  A    between atoms: _483  and  _485
REMARK  194  A    between atoms: _485  and  _486
REMARK  195  A    between atoms: _485  and  _488
REMARK  196  A    between atoms: _488  and  _489
REMARK  197  A    between atoms: _489  and  _490
REMARK  198  A    between atoms: _493  and  _495
REMARK  199  A    between atoms: _495  and  _496
REMARK  200  A    between atoms: _495  and  _498
REMARK  201  A    between atoms: _498  and  _499
REMARK  202  A    between atoms: _501  and  _503
REMARK  203  A    between atoms: _503  and  _504
REMARK  204  A    between atoms: _503  and  _506
REMARK  205  A    between atoms: _506  and  _507
REMARK  206  A    between atoms: _513  and  _515
REMARK  207  A    between atoms: _515  and  _516
REMARK  208  A    between atoms: _518  and  _520
REMARK  209  A    between atoms: _520  and  _521
REMARK  210  A    between atoms: _523  and  _525
REMARK  211  A    between atoms: _525  and  _526
REMARK  212  A    between atoms: _525  and  _528
REMARK  213  A    between atoms: _528  and  _529
REMARK  214  A    between atoms: _532  and  _534
REMARK  215  A    between atoms: _534  and  _535
REMARK  216  A    between atoms: _534  and  _537
REMARK  217  A    between atoms: _537  and  _538
REMARK  218  A    between atoms: _541  and  _543
REMARK  219  A    between atoms: _543  and  _544
REMARK  220  A    between atoms: _547  and  _549
REMARK  221  A    between atoms: _549  and  _550
REMARK  222  A    between atoms: _549  and  _552
REMARK  223  A    between atoms: _552  and  _553
REMARK  224  A    between atoms: _558  and  _560
REMARK  225  A    between atoms: _560  and  _561
REMARK  226  A    between atoms: _560  and  _563
REMARK  227  A    between atoms: _563  and  _564
REMARK  228  A    between atoms: _569  and  _571
REMARK  229  A    between atoms: _571  and  _572
REMARK  230  A    between atoms: _571  and  _574
REMARK  231  A    between atoms: _574  and  _575
REMARK  232  A    between atoms: _577  and  _579
REMARK  233  A    between atoms: _579  and  _580
REMARK  234  A    between atoms: _579  and  _582
REMARK  235  A    between atoms: _582  and  _583
REMARK  236  A    between atoms: _583  and  _584
REMARK  237  A    between atoms: _589  and  _591
REMARK  238  A    between atoms: _591  and  _592
REMARK  239  A    between atoms: _591  and  _594
REMARK  240  A    between atoms: _594  and  _595
REMARK  241  A    between atoms: _595  and  _596
REMARK                            x       y       z     vdW  Elec       q    Type
REMARK                         _______ _______ _______ _____ _____    ______ ____
ROOT
ATOM      1  O   HOH     1      34.746  57.540  39.940  0.00  0.00    +0.000 OA
ENDROOT
TORSDOF 0
REMARK  Name = ../refined-set-2016/2zq0/2zq0_pocket.pdb
REMARK  241 active torsions:
REMARK  status: ('A' for Active; 'I' for Inactive)
REMARK    1  A    between atoms: _1  and  _3
REMARK    2  A    between atoms: _3  and  _4
REMARK    3  A    between atoms: _3  and  _6
REMARK    4  A    between atoms: _6  and  _7
REMARK    5  A    between atoms: _10  and  _12
REMARK    6  A    between atoms: _12  and  _13
REMARK    7  A    between atoms: _12  and  _15
REMARK    8  A    between atoms: _15  and  _16
REMARK    9  A    between atoms: _16  and  _17
REMARK   10  A    between atoms: _22  and  _24
REMARK   11  A    between atoms: _24  and  _25
REMARK   12  A    between atoms: _24  and  _27
REMARK   13  A    between atoms: _27  and  _28
REMARK   14  A    between atoms: _28  and  _29
REMARK   15  A    between atoms: _29  and  _31
REMARK   16  A    between atoms: _31  and  CA_598
REMARK   17  A    between atoms: _32  and  _34
REMARK   18  A    between atoms: _34  and  _35
REMARK   19  A    between atoms: _34  and  _37
REMARK   20  A    between atoms: _37  and  _38
REMARK   21  A    between atoms: _42  and  _43
REMARK   22  A    between atoms: _48  and  _50
REMARK   23  A    between atoms: _50  and  _51
REMARK   24  A    between atoms: _50  and  _53
REMARK   25  A    between atoms: _53  and  _54
REMARK   26  A    between atoms: _59  and  _61
REMARK   27  A    between atoms: _61  and  _62
REMARK   28  A    between atoms: _61  and  _64
REMARK   29  A    between atoms: _64  and  _65
REMARK   30  A    between atoms: _67  and  _69
REMARK   31  A    between atoms: _69  and  _70
REMARK   32  A    between atoms: _69  and  _72
REMARK   33  A    between atoms: _72  and  _73
REMARK   34  A    between atoms: _75  and  _77
REMARK   35  A    between atoms: _77  and  _78
REMARK   36  A    between atoms: _77  and  _80
REMARK   37  A    between atoms: _80  and  _81
REMARK   38  A    between atoms: _81  and  _82
REMARK   39  A    between atoms: _87  and  _89
REMARK   40  A    between atoms: _89  and  _90
REMARK   41  A    between atoms: _89  and  _92
REMARK   42  A    between atoms: _92  and  _93
REMARK   43  A    between atoms: _98  and  _99
REMARK   44  A    between atoms: _101  and  _103
REMARK   45  A    between atoms: _103  and  _104
REMARK   46  A    between atoms: _103  and  _106
REMARK   47  A    between atoms: _109  and  _111
REMARK   48  A    between atoms: _111  and  _112
REMARK   49  A    between atoms: _111  and  _114
REMARK   50  A    between atoms: _114  and  _115
REMARK   51  A    between atoms: _125  and  _127
REMARK   52  A    between atoms: _127  and  _128
REMARK   53  A    between atoms: _127  and  _130
REMARK   54  A    between atoms: _130  and  _131
REMARK   55  A    between atoms: _141  and  _143
REMARK   56  A    between atoms: _143  and  _144
REMARK   57  A    between atoms: _143  and  _146
REMARK   58  A    between atoms: _146  and  _147
REMARK   59  A    between atoms: _147  and  _148
REMARK   60  A    between atoms: _150  and  _152
REMARK   61  A    between atoms: _152  and  _153
REMARK   62  A    between atoms: _152  and  _155
REMARK   63  A    between atoms: _155  and  _156
REMARK   64  A    between atoms: _159  and  _161
REMARK   65  A    between atoms: _161  and  _162
REMARK   66  A    between atoms: _161  and  _164
REMARK   67  A    between atoms: _164  and  _165
REMARK   68  A    between atoms: _168  and  _170
REMARK   69  A    between atoms: _170  and  _171
REMARK   70  A    between atoms: _170  and  _173
REMARK   71  A    between atoms: _173  and  _174
REMARK   72  A    between atoms: _184  and  _186
REMARK   73  A    between atoms: _186  and  _187
REMARK   74  A    between atoms: _186  and  _189
REMARK   75  A    between atoms: _189  and  _190
REMARK   76  A    between atoms: _193  and  _195
REMARK   77  A    between atoms: _195  and  _196
REMARK   78  A    between atoms: _195  and  _198
REMARK   79  A    between atoms: _198  and  _199
REMARK   80  A    between atoms: _199  and  _200
REMARK   81  A    between atoms: _203  and  _205
REMARK   82  A    between atoms: _205  and  _206
REMARK   83  A    between atoms: _208  and  _210
REMARK   84  A    between atoms: _210  and  _211
REMARK   85  A    between atoms: _210  and  _213
REMARK   86  A    between atoms: _213  and  _214
REMARK   87  A    between atoms: _224  and  _226
REMARK   88  A    between atoms: _226  and  _227
REMARK   89  A    between atoms: _226  and  _229
REMARK   90  A    between atoms: _229  and  _230
REMARK   91  A    between atoms: _240  and  _242
REMARK   92  A    between atoms: _242  and  _243
REMARK   93  A    between atoms: _242  and  _245
REMARK   94  A    between atoms: _245  and  _246
REMARK   95  A    between atoms: _252  and  _254
REMARK   96  A    between atoms: _254  and  _255
REMARK   97  A    between atoms: _254  and  _257
REMARK   98  A    between atoms: _257  and  _258
REMARK   99  A    between atoms: _264  and  _266
REMARK  100  A    between atoms: _266  and  _267
REMARK  101  A    between atoms: _266  and  _269
REMARK  102  A    between atoms: _269  and  _270
REMARK  103  A    between atoms: _275  and  _277
REMARK  104  A    between atoms: _277  and  _278
REMARK  105  A    between atoms: _277  and  _280
REMARK  106  A    between atoms: _280  and  _281
REMARK  107  A    between atoms: _286  and  _288
REMARK  108  A    between atoms: _288  and  _289
REMARK  109  A    between atoms: _288  and  _291
REMARK  110  A    between atoms: _291  and  _292
REMARK  111  A    between atoms: _292  and  _293
REMARK  112  A    between atoms: _296  and  _298
REMARK  113  A    between atoms: _298  and  _299
REMARK  114  A    between atoms: _298  and  _301
REMARK  115  A    between atoms: _301  and  _302
REMARK  116  A    between atoms: _305  and  _307
REMARK  117  A    between atoms: _307  and  _308
REMARK  118  A    between atoms: _307  and  _310
REMARK  119  A    between atoms: _310  and  _311
REMARK  120  A    between atoms: _313  and  _315
REMARK  121  A    between atoms: _315  and  _316
REMARK  122  A    between atoms: _315  and  _318
REMARK  123  A    between atoms: _318  and  _319
REMARK  124  A    between atoms: _319  and  _320
REMARK  125  A    between atoms: _320  and  _321
REMARK  126  A    between atoms: _321  and  _322
REMARK  127  A    between atoms: _326  and  _328
REMARK  128  A    between atoms: _328  and  _329
REMARK  129  A    between atoms: _328  and  _331
REMARK  130  A    between atoms: _331  and  _332
REMARK  131  A    between atoms: _334  and  _336
REMARK  132  A    between atoms: _336  and  _337
REMARK  133  A    between atoms: _339  and  _341
REMARK  134  A    between atoms: _341  and  _342
REMARK  135  A    between atoms: _341  and  _344
REMARK  136  A    between atoms: _344  and  _345
REMARK  137  A    between atoms: _350  and  _351
REMARK  138  A    between atoms: _353  and  _355
REMARK  139  A    between atoms: _355  and  _356
REMARK  140  A    between atoms: _355  and  _358
REMARK  141  A    between atoms: _361  and  _363
REMARK  142  A    between atoms: _363  and  _364
REMARK  143  A    between atoms: _366  and  _368
REMARK  144  A    between atoms: _368  and  _369
REMARK  145  A    between atoms: _368  and  _371
REMARK  146  A    between atoms: _371  and  _372
REMARK  147  A    between atoms: _377  and  _379
REMARK  148  A    between atoms: _379  and  _380
REMARK  149  A    between atoms: _383  and  _385
REMARK  150  A    between atoms: _385  and  _386
REMARK  151  A    between atoms: _385  and  _388
REMARK  152  A    between atoms: _388  and  _389
REMARK  153  A    between atoms: _394  and  _396
REMARK  154  A    between atoms: _396  and  _397
REMARK  155  A    between atoms: _396  and  _399
REMARK  156  A    between atoms: _399  and  _400
REMARK  157  A    between atoms: _400  and  _401
REMARK  158  A    between atoms: _401  and  _402
REMARK  159  A    between atoms: _402  and  CA_598
REMARK  160  A    between atoms: _404  and  _406
REMARK  161  A    between atoms: _406  and  _407
REMARK  162  A    between atoms: _406  and  _409
REMARK  163  A    between atoms: _409  and  _410
REMARK  164  A    between atoms: _410  and  _411
REMARK  165  A    between atoms: _414  and  _416
REMARK  166  A    between atoms: _416  and  _417
REMARK  167  A    between atoms: _416  and  _419
REMARK  168  A    between atoms: _419  and  _420
REMARK  169  A    between atoms: _422  and  _424
REMARK  170  A    between atoms: _424  and  _425
REMARK  171  A    between atoms: _428  and  _430
REMARK  172  A    between atoms: _430  and  _431
REMARK  173  A    between atoms: _430  and  _433
REMARK  174  A    between atoms: _433  and  _434
REMARK  175  A    between atoms: _434  and  _435
REMARK  176  A    between atoms: _435  and  _436
REMARK  177  A    between atoms: _445  and  _447
REMARK  178  A    between atoms: _447  and  _448
REMARK  179  A    between atoms: _450  and  _452
REMARK  180  A    between atoms: _452  and  _453
REMARK  181  A    between atoms: _452  and  _455
REMARK  182  A    between atoms: _455  and  _456
REMARK  183  A    between atoms: _459  and  _461
REMARK  184  A    between atoms: _461  and  _462
REMARK  185  A    between atoms: _461  and  _464
REMARK  186  A    between atoms: _464  and  _465
REMARK  187  A    between atoms: _465  and  _466
REMARK  188  A    between atoms: _469  and  _471
REMARK  189  A    between atoms: _471  and  _472
REMARK  190  A    between atoms: _471  and  _474
REMARK  191  A    between atoms: _474  and  _475
REMARK  192  A    between atoms: _480  and  _481
REMARK  193  A    between atoms: _483  and  _485
REMARK  194  A    between atoms: _485  and  _486
REMARK  195  A    between atoms: _485  and  _488
REMARK  196  A    between atoms: _488  and  _489
REMARK  197  A    between atoms: _489  and  _490
REMARK  198  A    between atoms: _493  and  _495
REMARK  199  A    between atoms: _495  and  _496
REMARK  200  A    between atoms: _495  and  _498
REMARK  201  A    between atoms: _498  and  _499
REMARK  202  A    between atoms: _501  and  _503
REMARK  203  A    between atoms: _503  and  _504
REMARK  204  A    between atoms: _503  and  _506
REMARK  205  A    between atoms: _506  and  _507
REMARK  206  A    between atoms: _513  and  _515
REMARK  207  A    between atoms: _515  and  _516
REMARK  208  A    between atoms: _518  and  _520
REMARK  209  A    between atoms: _520  and  _521
REMARK  210  A    between atoms: _523  and  _525
REMARK  211  A    between atoms: _525  and  _526
REMARK  212  A    between atoms: _525  and  _528
REMARK  213  A    between atoms: _528  and  _529
REMARK  214  A    between atoms: _532  and  _534
REMARK  215  A    between atoms: _534  and  _535
REMARK  216  A    between atoms: _534  and  _537
REMARK  217  A    between atoms: _537  and  _538
REMARK  218  A    between atoms: _541  and  _543
REMARK  219  A    between atoms: _543  and  _544
REMARK  220  A    between atoms: _547  and  _549
REMARK  221  A    between atoms: _549  and  _550
REMARK  222  A    between atoms: _549  and  _552
REMARK  223  A    between atoms: _552  and  _553
REMARK  224  A    between atoms: _558  and  _560
REMARK  225  A    between atoms: _560  and  _561
REMARK  226  A    between atoms: _560  and  _563
REMARK  227  A    between atoms: _563  and  _564
REMARK  228  A    between atoms: _569  and  _571
REMARK  229  A    between atoms: _571  and  _572
REMARK  230  A    between atoms: _571  and  _574
REMARK  231  A    between atoms: _574  and  _575
REMARK  232  A    between atoms: _577  and  _579
REMARK  233  A    between atoms: _579  and  _580
REMARK  234  A    between atoms: _579  and  _582
REMARK  235  A    between atoms: _582  and  _583
REMARK  236  A    between atoms: _583  and  _584
REMARK  237  A    between atoms: _589  and  _591
REMARK  238  A    between atoms: _591  and  _592
REMARK  239  A    between atoms: _591  and  _594
REMARK  240  A    between atoms: _594  and  _595
REMARK  241  A    between atoms: _595  and  _596
REMARK                            x       y       z     vdW  Elec       q    Type
REMARK                         _______ _______ _______ _____ _____    ______ ____
ROOT
ATOM      1  O   HOH     1      33.291  55.198  30.584  0.00  0.00    +0.000 OA
ENDROOT
TORSDOF 0
REMARK  Name = ../refined-set-2016/2zq0/2zq0_pocket.pdb
REMARK  241 active torsions:
REMARK  status: ('A' for Active; 'I' for Inactive)
REMARK    1  A    between atoms: _1  and  _3
REMARK    2  A    between atoms: _3  and  _4
REMARK    3  A    between atoms: _3  and  _6
REMARK    4  A    between atoms: _6  and  _7
REMARK    5  A    between atoms: _10  and  _12
REMARK    6  A    between atoms: _12  and  _13
REMARK    7  A    between atoms: _12  and  _15
REMARK    8  A    between atoms: _15  and  _16
REMARK    9  A    between atoms: _16  and  _17
REMARK   10  A    between atoms: _22  and  _24
REMARK   11  A    between atoms: _24  and  _25
REMARK   12  A    between atoms: _24  and  _27
REMARK   13  A    between atoms: _27  and  _28
REMARK   14  A    between atoms: _28  and  _29
REMARK   15  A    between atoms: _29  and  _31
REMARK   16  A    between atoms: _31  and  CA_598
REMARK   17  A    between atoms: _32  and  _34
REMARK   18  A    between atoms: _34  and  _35
REMARK   19  A    between atoms: _34  and  _37
REMARK   20  A    between atoms: _37  and  _38
REMARK   21  A    between atoms: _42  and  _43
REMARK   22  A    between atoms: _48  and  _50
REMARK   23  A    between atoms: _50  and  _51
REMARK   24  A    between atoms: _50  and  _53
REMARK   25  A    between atoms: _53  and  _54
REMARK   26  A    between atoms: _59  and  _61
REMARK   27  A    between atoms: _61  and  _62
REMARK   28  A    between atoms: _61  and  _64
REMARK   29  A    between atoms: _64  and  _65
REMARK   30  A    between atoms: _67  and  _69
REMARK   31  A    between atoms: _69  and  _70
REMARK   32  A    between atoms: _69  and  _72
REMARK   33  A    between atoms: _72  and  _73
REMARK   34  A    between atoms: _75  and  _77
REMARK   35  A    between atoms: _77  and  _78
REMARK   36  A    between atoms: _77  and  _80
REMARK   37  A    between atoms: _80  and  _81
REMARK   38  A    between atoms: _81  and  _82
REMARK   39  A    between atoms: _87  and  _89
REMARK   40  A    between atoms: _89  and  _90
REMARK   41  A    between atoms: _89  and  _92
REMARK   42  A    between atoms: _92  and  _93
REMARK   43  A    between atoms: _98  and  _99
REMARK   44  A    between atoms: _101  and  _103
REMARK   45  A    between atoms: _103  and  _104
REMARK   46  A    between atoms: _103  and  _106
REMARK   47  A    between atoms: _109  and  _111
REMARK   48  A    between atoms: _111  and  _112
REMARK   49  A    between atoms: _111  and  _114
REMARK   50  A    between atoms: _114  and  _115
REMARK   51  A    between atoms: _125  and  _127
REMARK   52  A    between atoms: _127  and  _128
REMARK   53  A    between atoms: _127  and  _130
REMARK   54  A    between atoms: _130  and  _131
REMARK   55  A    between atoms: _141  and  _143
REMARK   56  A    between atoms: _143  and  _144
REMARK   57  A    between atoms: _143  and  _146
REMARK   58  A    between atoms: _146  and  _147
REMARK   59  A    between atoms: _147  and  _148
REMARK   60  A    between atoms: _150  and  _152
REMARK   61  A    between atoms: _152  and  _153
REMARK   62  A    between atoms: _152  and  _155
REMARK   63  A    between atoms: _155  and  _156
REMARK   64  A    between atoms: _159  and  _161
REMARK   65  A    between atoms: _161  and  _162
REMARK   66  A    between atoms: _161  and  _164
REMARK   67  A    between atoms: _164  and  _165
REMARK   68  A    between atoms: _168  and  _170
REMARK   69  A    between atoms: _170  and  _171
REMARK   70  A    between atoms: _170  and  _173
REMARK   71  A    between atoms: _173  and  _174
REMARK   72  A    between atoms: _184  and  _186
REMARK   73  A    between atoms: _186  and  _187
REMARK   74  A    between atoms: _186  and  _189
REMARK   75  A    between atoms: _189  and  _190
REMARK   76  A    between atoms: _193  and  _195
REMARK   77  A    between atoms: _195  and  _196
REMARK   78  A    between atoms: _195  and  _198
REMARK   79  A    between atoms: _198  and  _199
REMARK   80  A    between atoms: _199  and  _200
REMARK   81  A    between atoms: _203  and  _205
REMARK   82  A    between atoms: _205  and  _206
REMARK   83  A    between atoms: _208  and  _210
REMARK   84  A    between atoms: _210  and  _211
REMARK   85  A    between atoms: _210  and  _213
REMARK   86  A    between atoms: _213  and  _214
REMARK   87  A    between atoms: _224  and  _226
REMARK   88  A    between atoms: _226  and  _227
REMARK   89  A    between atoms: _226  and  _229
REMARK   90  A    between atoms: _229  and  _230
REMARK   91  A    between atoms: _240  and  _242
REMARK   92  A    between atoms: _242  and  _243
REMARK   93  A    between atoms: _242  and  _245
REMARK   94  A    between atoms: _245  and  _246
REMARK   95  A    between atoms: _252  and  _254
REMARK   96  A    between atoms: _254  and  _255
REMARK   97  A    between atoms: _254  and  _257
REMARK   98  A    between atoms: _257  and  _258
REMARK   99  A    between atoms: _264  and  _266
REMARK  100  A    between atoms: _266  and  _267
REMARK  101  A    between atoms: _266  and  _269
REMARK  102  A    between atoms: _269  and  _270
REMARK  103  A    between atoms: _275  and  _277
REMARK  104  A    between atoms: _277  and  _278
REMARK  105  A    between atoms: _277  and  _280
REMARK  106  A    between atoms: _280  and  _281
REMARK  107  A    between atoms: _286  and  _288
REMARK  108  A    between atoms: _288  and  _289
REMARK  109  A    between atoms: _288  and  _291
REMARK  110  A    between atoms: _291  and  _292
REMARK  111  A    between atoms: _292  and  _293
REMARK  112  A    between atoms: _296  and  _298
REMARK  113  A    between atoms: _298  and  _299
REMARK  114  A    between atoms: _298  and  _301
REMARK  115  A    between atoms: _301  and  _302
REMARK  116  A    between atoms: _305  and  _307
REMARK  117  A    between atoms: _307  and  _308
REMARK  118  A    between atoms: _307  and  _310
REMARK  119  A    between atoms: _310  and  _311
REMARK  120  A    between atoms: _313  and  _315
REMARK  121  A    between atoms: _315  and  _316
REMARK  122  A    between atoms: _315  and  _318
REMARK  123  A    between atoms: _318  and  _319
REMARK  124  A    between atoms: _319  and  _320
REMARK  125  A    between atoms: _320  and  _321
REMARK  126  A    between atoms: _321  and  _322
REMARK  127  A    between atoms: _326  and  _328
REMARK  128  A    between atoms: _328  and  _329
REMARK  129  A    between atoms: _328  and  _331
REMARK  130  A    between atoms: _331  and  _332
REMARK  131  A    between atoms: _334  and  _336
REMARK  132  A    between atoms: _336  and  _337
REMARK  133  A    between atoms: _339  and  _341
REMARK  134  A    between atoms: _341  and  _342
REMARK  135  A    between atoms: _341  and  _344
REMARK  136  A    between atoms: _344  and  _345
REMARK  137  A    between atoms: _350  and  _351
REMARK  138  A    between atoms: _353  and  _355
REMARK  139  A    between atoms: _355  and  _356
REMARK  140  A    between atoms: _355  and  _358
REMARK  141  A    between atoms: _361  and  _363
REMARK  142  A    between atoms: _363  and  _364
REMARK  143  A    between atoms: _366  and  _368
REMARK  144  A    between atoms: _368  and  _369
REMARK  145  A    between atoms: _368  and  _371
REMARK  146  A    between atoms: _371  and  _372
REMARK  147  A    between atoms: _377  and  _379
REMARK  148  A    between atoms: _379  and  _380
REMARK  149  A    between atoms: _383  and  _385
REMARK  150  A    between atoms: _385  and  _386
REMARK  151  A    between atoms: _385  and  _388
REMARK  152  A    between atoms: _388  and  _389
REMARK  153  A    between atoms: _394  and  _396
REMARK  154  A    between atoms: _396  and  _397
REMARK  155  A    between atoms: _396  and  _399
REMARK  156  A    between atoms: _399  and  _400
REMARK  157  A    between atoms: _400  and  _401
REMARK  158  A    between atoms: _401  and  _402
REMARK  159  A    between atoms: _402  and  CA_598
REMARK  160  A    between atoms: _404  and  _406
REMARK  161  A    between atoms: _406  and  _407
REMARK  162  A    between atoms: _406  and  _409
REMARK  163  A    between atoms: _409  and  _410
REMARK  164  A    between atoms: _410  and  _411
REMARK  165  A    between atoms: _414  and  _416
REMARK  166  A    between atoms: _416  and  _417
REMARK  167  A    between atoms: _416  and  _419
REMARK  168  A    between atoms: _419  and  _420
REMARK  169  A    between atoms: _422  and  _424
REMARK  170  A    between atoms: _424  and  _425
REMARK  171  A    between atoms: _428  and  _430
REMARK  172  A    between atoms: _430  and  _431
REMARK  173  A    between atoms: _430  and  _433
REMARK  174  A    between atoms: _433  and  _434
REMARK  175  A    between atoms: _434  and  _435
REMARK  176  A    between atoms: _435  and  _436
REMARK  177  A    between atoms: _445  and  _447
REMARK  178  A    between atoms: _447  and  _448
REMARK  179  A    between atoms: _450  and  _452
REMARK  180  A    between atoms: _452  and  _453
REMARK  181  A    between atoms: _452  and  _455
REMARK  182  A    between atoms: _455  and  _456
REMARK  183  A    between atoms: _459  and  _461
REMARK  184  A    between atoms: _461  and  _462
REMARK  185  A    between atoms: _461  and  _464
REMARK  186  A    between atoms: _464  and  _465
REMARK  187  A    between atoms: _465  and  _466
REMARK  188  A    between atoms: _469  and  _471
REMARK  189  A    between atoms: _471  and  _472
REMARK  190  A    between atoms: _471  and  _474
REMARK  191  A    between atoms: _474  and  _475
REMARK  192  A    between atoms: _480  and  _481
REMARK  193  A    between atoms: _483  and  _485
REMARK  194  A    between atoms: _485  and  _486
REMARK  195  A    between atoms: _485  and  _488
REMARK  196  A    between atoms: _488  and  _489
REMARK  197  A    between atoms: _489  and  _490
REMARK  198  A    between atoms: _493  and  _495
REMARK  199  A    between atoms: _495  and  _496
REMARK  200  A    between atoms: _495  and  _498
REMARK  201  A    between atoms: _498  and  _499
REMARK  202  A    between atoms: _501  and  _503
REMARK  203  A    between atoms: _503  and  _504
REMARK  204  A    between atoms: _503  and  _506
REMARK  205  A    between atoms: _506  and  _507
REMARK  206  A    between atoms: _513  and  _515
REMARK  207  A    between atoms: _515  and  _516
REMARK  208  A    between atoms: _518  and  _520
REMARK  209  A    between atoms: _520  and  _521
REMARK  210  A    between atoms: _523  and  _525
REMARK  211  A    between atoms: _525  and  _526
REMARK  212  A    between atoms: _525  and  _528
REMARK  213  A    between atoms: _528  and  _529
REMARK  214  A    between atoms: _532  and  _534
REMARK  215  A    between atoms: _534  and  _535
REMARK  216  A    between atoms: _534  and  _537
REMARK  217  A    between atoms: _537  and  _538
REMARK  218  A    between atoms: _541  and  _543
REMARK  219  A    between atoms: _543  and  _544
REMARK  220  A    between atoms: _547  and  _549
REMARK  221  A    between atoms: _549  and  _550
REMARK  222  A    between atoms: _549  and  _552
REMARK  223  A    between atoms: _552  and  _553
REMARK  224  A    between atoms: _558  and  _560
REMARK  225  A    between atoms: _560  and  _561
REMARK  226  A    between atoms: _560  and  _563
REMARK  227  A    between atoms: _563  and  _564
REMARK  228  A    between atoms: _569  and  _571
REMARK  229  A    between atoms: _571  and  _572
REMARK  230  A    between atoms: _571  and  _574
REMARK  231  A    between atoms: _574  and  _575
REMARK  232  A    between atoms: _577  and  _579
REMARK  233  A    between atoms: _579  and  _580
REMARK  234  A    between atoms: _579  and  _582
REMARK  235  A    between atoms: _582  and  _583
REMARK  236  A    between atoms: _583  and  _584
REMARK  237  A    between atoms: _589  and  _591
REMARK  238  A    between atoms: _591  and  _592
REMARK  239  A    between atoms: _591  and  _594
REMARK  240  A    between atoms: _594  and  _595
REMARK  241  A    between atoms: _595  and  _596
REMARK                            x       y       z     vdW  Elec       q    Type
REMARK                         _______ _______ _______ _____ _____    ______ ____
ROOT
ATOM      1  O   HOH     1      37.558  56.861  34.318  0.00  0.00    +0.000 OA
ENDROOT
TORSDOF 0
REMARK  Name = ../refined-set-2016/2zq0/2zq0_pocket.pdb
REMARK  241 active torsions:
REMARK  status: ('A' for Active; 'I' for Inactive)
REMARK    1  A    between atoms: _1  and  _3
REMARK    2  A    between atoms: _3  and  _4
REMARK    3  A    between atoms: _3  and  _6
REMARK    4  A    between atoms: _6  and  _7
REMARK    5  A    between atoms: _10  and  _12
REMARK    6  A    between atoms: _12  and  _13
REMARK    7  A    between atoms: _12  and  _15
REMARK    8  A    between atoms: _15  and  _16
REMARK    9  A    between atoms: _16  and  _17
REMARK   10  A    between atoms: _22  and  _24
REMARK   11  A    between atoms: _24  and  _25
REMARK   12  A    between atoms: _24  and  _27
REMARK   13  A    between atoms: _27  and  _28
REMARK   14  A    between atoms: _28  and  _29
REMARK   15  A    between atoms: _29  and  _31
REMARK   16  A    between atoms: _31  and  CA_598
REMARK   17  A    between atoms: _32  and  _34
REMARK   18  A    between atoms: _34  and  _35
REMARK   19  A    between atoms: _34  and  _37
REMARK   20  A    between atoms: _37  and  _38
REMARK   21  A    between atoms: _42  and  _43
REMARK   22  A    between atoms: _48  and  _50
REMARK   23  A    between atoms: _50  and  _51
REMARK   24  A    between atoms: _50  and  _53
REMARK   25  A    between atoms: _53  and  _54
REMARK   26  A    between atoms: _59  and  _61
REMARK   27  A    between atoms: _61  and  _62
REMARK   28  A    between atoms: _61  and  _64
REMARK   29  A    between atoms: _64  and  _65
REMARK   30  A    between atoms: _67  and  _69
REMARK   31  A    between atoms: _69  and  _70
REMARK   32  A    between atoms: _69  and  _72
REMARK   33  A    between atoms: _72  and  _73
REMARK   34  A    between atoms: _75  and  _77
REMARK   35  A    between atoms: _77  and  _78
REMARK   36  A    between atoms: _77  and  _80
REMARK   37  A    between atoms: _80  and  _81
REMARK   38  A    between atoms: _81  and  _82
REMARK   39  A    between atoms: _87  and  _89
REMARK   40  A    between atoms: _89  and  _90
REMARK   41  A    between atoms: _89  and  _92
REMARK   42  A    between atoms: _92  and  _93
REMARK   43  A    between atoms: _98  and  _99
REMARK   44  A    between atoms: _101  and  _103
REMARK   45  A    between atoms: _103  and  _104
REMARK   46  A    between atoms: _103  and  _106
REMARK   47  A    between atoms: _109  and  _111
REMARK   48  A    between atoms: _111  and  _112
REMARK   49  A    between atoms: _111  and  _114
REMARK   50  A    between atoms: _114  and  _115
REMARK   51  A    between atoms: _125  and  _127
REMARK   52  A    between atoms: _127  and  _128
REMARK   53  A    between atoms: _127  and  _130
REMARK   54  A    between atoms: _130  and  _131
REMARK   55  A    between atoms: _141  and  _143
REMARK   56  A    between atoms: _143  and  _144
REMARK   57  A    between atoms: _143  and  _146
REMARK   58  A    between atoms: _146  and  _147
REMARK   59  A    between atoms: _147  and  _148
REMARK   60  A    between atoms: _150  and  _152
REMARK   61  A    between atoms: _152  and  _153
REMARK   62  A    between atoms: _152  and  _155
REMARK   63  A    between atoms: _155  and  _156
REMARK   64  A    between atoms: _159  and  _161
REMARK   65  A    between atoms: _161  and  _162
REMARK   66  A    between atoms: _161  and  _164
REMARK   67  A    between atoms: _164  and  _165
REMARK   68  A    between atoms: _168  and  _170
REMARK   69  A    between atoms: _170  and  _171
REMARK   70  A    between atoms: _170  and  _173
REMARK   71  A    between atoms: _173  and  _174
REMARK   72  A    between atoms: _184  and  _186
REMARK   73  A    between atoms: _186  and  _187
REMARK   74  A    between atoms: _186  and  _189
REMARK   75  A    between atoms: _189  and  _190
REMARK   76  A    between atoms: _193  and  _195
REMARK   77  A    between atoms: _195  and  _196
REMARK   78  A    between atoms: _195  and  _198
REMARK   79  A    between atoms: _198  and  _199
REMARK   80  A    between atoms: _199  and  _200
REMARK   81  A    between atoms: _203  and  _205
REMARK   82  A    between atoms: _205  and  _206
REMARK   83  A    between atoms: _208  and  _210
REMARK   84  A    between atoms: _210  and  _211
REMARK   85  A    between atoms: _210  and  _213
REMARK   86  A    between atoms: _213  and  _214
REMARK   87  A    between atoms: _224  and  _226
REMARK   88  A    between atoms: _226  and  _227
REMARK   89  A    between atoms: _226  and  _229
REMARK   90  A    between atoms: _229  and  _230
REMARK   91  A    between atoms: _240  and  _242
REMARK   92  A    between atoms: _242  and  _243
REMARK   93  A    between atoms: _242  and  _245
REMARK   94  A    between atoms: _245  and  _246
REMARK   95  A    between atoms: _252  and  _254
REMARK   96  A    between atoms: _254  and  _255
REMARK   97  A    between atoms: _254  and  _257
REMARK   98  A    between atoms: _257  and  _258
REMARK   99  A    between atoms: _264  and  _266
REMARK  100  A    between atoms: _266  and  _267
REMARK  101  A    between atoms: _266  and  _269
REMARK  102  A    between atoms: _269  and  _270
REMARK  103  A    between atoms: _275  and  _277
REMARK  104  A    between atoms: _277  and  _278
REMARK  105  A    between atoms: _277  and  _280
REMARK  106  A    between atoms: _280  and  _281
REMARK  107  A    between atoms: _286  and  _288
REMARK  108  A    between atoms: _288  and  _289
REMARK  109  A    between atoms: _288  and  _291
REMARK  110  A    between atoms: _291  and  _292
REMARK  111  A    between atoms: _292  and  _293
REMARK  112  A    between atoms: _296  and  _298
REMARK  113  A    between atoms: _298  and  _299
REMARK  114  A    between atoms: _298  and  _301
REMARK  115  A    between atoms: _301  and  _302
REMARK  116  A    between atoms: _305  and  _307
REMARK  117  A    between atoms: _307  and  _308
REMARK  118  A    between atoms: _307  and  _310
REMARK  119  A    between atoms: _310  and  _311
REMARK  120  A    between atoms: _313  and  _315
REMARK  121  A    between atoms: _315  and  _316
REMARK  122  A    between atoms: _315  and  _318
REMARK  123  A    between atoms: _318  and  _319
REMARK  124  A    between atoms: _319  and  _320
REMARK  125  A    between atoms: _320  and  _321
REMARK  126  A    between atoms: _321  and  _322
REMARK  127  A    between atoms: _326  and  _328
REMARK  128  A    between atoms: _328  and  _329
REMARK  129  A    between atoms: _328  and  _331
REMARK  130  A    between atoms: _331  and  _332
REMARK  131  A    between atoms: _334  and  _336
REMARK  132  A    between atoms: _336  and  _337
REMARK  133  A    between atoms: _339  and  _341
REMARK  134  A    between atoms: _341  and  _342
REMARK  135  A    between atoms: _341  and  _344
REMARK  136  A    between atoms: _344  and  _345
REMARK  137  A    between atoms: _350  and  _351
REMARK  138  A    between atoms: _353  and  _355
REMARK  139  A    between atoms: _355  and  _356
REMARK  140  A    between atoms: _355  and  _358
REMARK  141  A    between atoms: _361  and  _363
REMARK  142  A    between atoms: _363  and  _364
REMARK  143  A    between atoms: _366  and  _368
REMARK  144  A    between atoms: _368  and  _369
REMARK  145  A    between atoms: _368  and  _371
REMARK  146  A    between atoms: _371  and  _372
REMARK  147  A    between atoms: _377  and  _379
REMARK  148  A    between atoms: _379  and  _380
REMARK  149  A    between atoms: _383  and  _385
REMARK  150  A    between atoms: _385  and  _386
REMARK  151  A    between atoms: _385  and  _388
REMARK  152  A    between atoms: _388  and  _389
REMARK  153  A    between atoms: _394  and  _396
REMARK  154  A    between atoms: _396  and  _397
REMARK  155  A    between atoms: _396  and  _399
REMARK  156  A    between atoms: _399  and  _400
REMARK  157  A    between atoms: _400  and  _401
REMARK  158  A    between atoms: _401  and  _402
REMARK  159  A    between atoms: _402  and  CA_598
REMARK  160  A    between atoms: _404  and  _406
REMARK  161  A    between atoms: _406  and  _407
REMARK  162  A    between atoms: _406  and  _409
REMARK  163  A    between atoms: _409  and  _410
REMARK  164  A    between atoms: _410  and  _411
REMARK  165  A    between atoms: _414  and  _416
REMARK  166  A    between atoms: _416  and  _417
REMARK  167  A    between atoms: _416  and  _419
REMARK  168  A    between atoms: _419  and  _420
REMARK  169  A    between atoms: _422  and  _424
REMARK  170  A    between atoms: _424  and  _425
REMARK  171  A    between atoms: _428  and  _430
REMARK  172  A    between atoms: _430  and  _431
REMARK  173  A    between atoms: _430  and  _433
REMARK  174  A    between atoms: _433  and  _434
REMARK  175  A    between atoms: _434  and  _435
REMARK  176  A    between atoms: _435  and  _436
REMARK  177  A    between atoms: _445  and  _447
REMARK  178  A    between atoms: _447  and  _448
REMARK  179  A    between atoms: _450  and  _452
REMARK  180  A    between atoms: _452  and  _453
REMARK  181  A    between atoms: _452  and  _455
REMARK  182  A    between atoms: _455  and  _456
REMARK  183  A    between atoms: _459  and  _461
REMARK  184  A    between atoms: _461  and  _462
REMARK  185  A    between atoms: _461  and  _464
REMARK  186  A    between atoms: _464  and  _465
REMARK  187  A    between atoms: _465  and  _466
REMARK  188  A    between atoms: _469  and  _471
REMARK  189  A    between atoms: _471  and  _472
REMARK  190  A    between atoms: _471  and  _474
REMARK  191  A    between atoms: _474  and  _475
REMARK  192  A    between atoms: _480  and  _481
REMARK  193  A    between atoms: _483  and  _485
REMARK  194  A    between atoms: _485  and  _486
REMARK  195  A    between atoms: _485  and  _488
REMARK  196  A    between atoms: _488  and  _489
REMARK  197  A    between atoms: _489  and  _490
REMARK  198  A    between atoms: _493  and  _495
REMARK  199  A    between atoms: _495  and  _496
REMARK  200  A    between atoms: _495  and  _498
REMARK  201  A    between atoms: _498  and  _499
REMARK  202  A    between atoms: _501  and  _503
REMARK  203  A    between atoms: _503  and  _504
REMARK  204  A    between atoms: _503  and  _506
REMARK  205  A    between atoms: _506  and  _507
REMARK  206  A    between atoms: _513  and  _515
REMARK  207  A    between atoms: _515  and  _516
REMARK  208  A    between atoms: _518  and  _520
REMARK  209  A    between atoms: _520  and  _521
REMARK  210  A    between atoms: _523  and  _525
REMARK  211  A    between atoms: _525  and  _526
REMARK  212  A    between atoms: _525  and  _528
REMARK  213  A    between atoms: _528  and  _529
REMARK  214  A    between atoms: _532  and  _534
REMARK  215  A    between atoms: _534  and  _535
REMARK  216  A    between atoms: _534  and  _537
REMARK  217  A    between atoms: _537  and  _538
REMARK  218  A    between atoms: _541  and  _543
REMARK  219  A    between atoms: _543  and  _544
REMARK  220  A    between atoms: _547  and  _549
REMARK  221  A    between atoms: _549  and  _550
REMARK  222  A    between atoms: _549  and  _552
REMARK  223  A    between atoms: _552  and  _553
REMARK  224  A    between atoms: _558  and  _560
REMARK  225  A    between atoms: _560  and  _561
REMARK  226  A    between atoms: _560  and  _563
REMARK  227  A    between atoms: _563  and  _564
REMARK  228  A    between atoms: _569  and  _571
REMARK  229  A    between atoms: _571  and  _572
REMARK  230  A    between atoms: _571  and  _574
REMARK  231  A    between atoms: _574  and  _575
REMARK  232  A    between atoms: _577  and  _579
REMARK  233  A    between atoms: _579  and  _580
REMARK  234  A    between atoms: _579  and  _582
REMARK  235  A    between atoms: _582  and  _583
REMARK  236  A    between atoms: _583  and  _584
REMARK  237  A    between atoms: _589  and  _591
REMARK  238  A    between atoms: _591  and  _592
REMARK  239  A    between atoms: _591  and  _594
REMARK  240  A    between atoms: _594  and  _595
REMARK  241  A    between atoms: _595  and  _596
REMARK                            x       y       z     vdW  Elec       q    Type
REMARK                         _______ _______ _______ _____ _____    ______ ____
ROOT
ATOM      1  O   HOH     1      32.741  44.793  44.617  0.00  0.00    +0.000 OA
ENDROOT
TORSDOF 0
REMARK  Name = ../refined-set-2016/2zq0/2zq0_pocket.pdb
REMARK  241 active torsions:
REMARK  status: ('A' for Active; 'I' for Inactive)
REMARK    1  A    between atoms: _1  and  _3
REMARK    2  A    between atoms: _3  and  _4
REMARK    3  A    between atoms: _3  and  _6
REMARK    4  A    between atoms: _6  and  _7
REMARK    5  A    between atoms: _10  and  _12
REMARK    6  A    between atoms: _12  and  _13
REMARK    7  A    between atoms: _12  and  _15
REMARK    8  A    between atoms: _15  and  _16
REMARK    9  A    between atoms: _16  and  _17
REMARK   10  A    between atoms: _22  and  _24
REMARK   11  A    between atoms: _24  and  _25
REMARK   12  A    between atoms: _24  and  _27
REMARK   13  A    between atoms: _27  and  _28
REMARK   14  A    between atoms: _28  and  _29
REMARK   15  A    between atoms: _29  and  _31
REMARK   16  A    between atoms: _31  and  CA_598
REMARK   17  A    between atoms: _32  and  _34
REMARK   18  A    between atoms: _34  and  _35
REMARK   19  A    between atoms: _34  and  _37
REMARK   20  A    between atoms: _37  and  _38
REMARK   21  A    between atoms: _42  and  _43
REMARK   22  A    between atoms: _48  and  _50
REMARK   23  A    between atoms: _50  and  _51
REMARK   24  A    between atoms: _50  and  _53
REMARK   25  A    between atoms: _53  and  _54
REMARK   26  A    between atoms: _59  and  _61
REMARK   27  A    between atoms: _61  and  _62
REMARK   28  A    between atoms: _61  and  _64
REMARK   29  A    between atoms: _64  and  _65
REMARK   30  A    between atoms: _67  and  _69
REMARK   31  A    between atoms: _69  and  _70
REMARK   32  A    between atoms: _69  and  _72
REMARK   33  A    between atoms: _72  and  _73
REMARK   34  A    between atoms: _75  and  _77
REMARK   35  A    between atoms: _77  and  _78
REMARK   36  A    between atoms: _77  and  _80
REMARK   37  A    between atoms: _80  and  _81
REMARK   38  A    between atoms: _81  and  _82
REMARK   39  A    between atoms: _87  and  _89
REMARK   40  A    between atoms: _89  and  _90
REMARK   41  A    between atoms: _89  and  _92
REMARK   42  A    between atoms: _92  and  _93
REMARK   43  A    between atoms: _98  and  _99
REMARK   44  A    between atoms: _101  and  _103
REMARK   45  A    between atoms: _103  and  _104
REMARK   46  A    between atoms: _103  and  _106
REMARK   47  A    between atoms: _109  and  _111
REMARK   48  A    between atoms: _111  and  _112
REMARK   49  A    between atoms: _111  and  _114
REMARK   50  A    between atoms: _114  and  _115
REMARK   51  A    between atoms: _125  and  _127
REMARK   52  A    between atoms: _127  and  _128
REMARK   53  A    between atoms: _127  and  _130
REMARK   54  A    between atoms: _130  and  _131
REMARK   55  A    between atoms: _141  and  _143
REMARK   56  A    between atoms: _143  and  _144
REMARK   57  A    between atoms: _143  and  _146
REMARK   58  A    between atoms: _146  and  _147
REMARK   59  A    between atoms: _147  and  _148
REMARK   60  A    between atoms: _150  and  _152
REMARK   61  A    between atoms: _152  and  _153
REMARK   62  A    between atoms: _152  and  _155
REMARK   63  A    between atoms: _155  and  _156
REMARK   64  A    between atoms: _159  and  _161
REMARK   65  A    between atoms: _161  and  _162
REMARK   66  A    between atoms: _161  and  _164
REMARK   67  A    between atoms: _164  and  _165
REMARK   68  A    between atoms: _168  and  _170
REMARK   69  A    between atoms: _170  and  _171
REMARK   70  A    between atoms: _170  and  _173
REMARK   71  A    between atoms: _173  and  _174
REMARK   72  A    between atoms: _184  and  _186
REMARK   73  A    between atoms: _186  and  _187
REMARK   74  A    between atoms: _186  and  _189
REMARK   75  A    between atoms: _189  and  _190
REMARK   76  A    between atoms: _193  and  _195
REMARK   77  A    between atoms: _195  and  _196
REMARK   78  A    between atoms: _195  and  _198
REMARK   79  A    between atoms: _198  and  _199
REMARK   80  A    between atoms: _199  and  _200
REMARK   81  A    between atoms: _203  and  _205
REMARK   82  A    between atoms: _205  and  _206
REMARK   83  A    between atoms: _208  and  _210
REMARK   84  A    between atoms: _210  and  _211
REMARK   85  A    between atoms: _210  and  _213
REMARK   86  A    between atoms: _213  and  _214
REMARK   87  A    between atoms: _224  and  _226
REMARK   88  A    between atoms: _226  and  _227
REMARK   89  A    between atoms: _226  and  _229
REMARK   90  A    between atoms: _229  and  _230
REMARK   91  A    between atoms: _240  and  _242
REMARK   92  A    between atoms: _242  and  _243
REMARK   93  A    between atoms: _242  and  _245
REMARK   94  A    between atoms: _245  and  _246
REMARK   95  A    between atoms: _252  and  _254
REMARK   96  A    between atoms: _254  and  _255
REMARK   97  A    between atoms: _254  and  _257
REMARK   98  A    between atoms: _257  and  _258
REMARK   99  A    between atoms: _264  and  _266
REMARK  100  A    between atoms: _266  and  _267
REMARK  101  A    between atoms: _266  and  _269
REMARK  102  A    between atoms: _269  and  _270
REMARK  103  A    between atoms: _275  and  _277
REMARK  104  A    between atoms: _277  and  _278
REMARK  105  A    between atoms: _277  and  _280
REMARK  106  A    between atoms: _280  and  _281
REMARK  107  A    between atoms: _286  and  _288
REMARK  108  A    between atoms: _288  and  _289
REMARK  109  A    between atoms: _288  and  _291
REMARK  110  A    between atoms: _291  and  _292
REMARK  111  A    between atoms: _292  and  _293
REMARK  112  A    between atoms: _296  and  _298
REMARK  113  A    between atoms: _298  and  _299
REMARK  114  A    between atoms: _298  and  _301
REMARK  115  A    between atoms: _301  and  _302
REMARK  116  A    between atoms: _305  and  _307
REMARK  117  A    between atoms: _307  and  _308
REMARK  118  A    between atoms: _307  and  _310
REMARK  119  A    between atoms: _310  and  _311
REMARK  120  A    between atoms: _313  and  _315
REMARK  121  A    between atoms: _315  and  _316
REMARK  122  A    between atoms: _315  and  _318
REMARK  123  A    between atoms: _318  and  _319
REMARK  124  A    between atoms: _319  and  _320
REMARK  125  A    between atoms: _320  and  _321
REMARK  126  A    between atoms: _321  and  _322
REMARK  127  A    between atoms: _326  and  _328
REMARK  128  A    between atoms: _328  and  _329
REMARK  129  A    between atoms: _328  and  _331
REMARK  130  A    between atoms: _331  and  _332
REMARK  131  A    between atoms: _334  and  _336
REMARK  132  A    between atoms: _336  and  _337
REMARK  133  A    between atoms: _339  and  _341
REMARK  134  A    between atoms: _341  and  _342
REMARK  135  A    between atoms: _341  and  _344
REMARK  136  A    between atoms: _344  and  _345
REMARK  137  A    between atoms: _350  and  _351
REMARK  138  A    between atoms: _353  and  _355
REMARK  139  A    between atoms: _355  and  _356
REMARK  140  A    between atoms: _355  and  _358
REMARK  141  A    between atoms: _361  and  _363
REMARK  142  A    between atoms: _363  and  _364
REMARK  143  A    between atoms: _366  and  _368
REMARK  144  A    between atoms: _368  and  _369
REMARK  145  A    between atoms: _368  and  _371
REMARK  146  A    between atoms: _371  and  _372
REMARK  147  A    between atoms: _377  and  _379
REMARK  148  A    between atoms: _379  and  _380
REMARK  149  A    between atoms: _383  and  _385
REMARK  150  A    between atoms: _385  and  _386
REMARK  151  A    between atoms: _385  and  _388
REMARK  152  A    between atoms: _388  and  _389
REMARK  153  A    between atoms: _394  and  _396
REMARK  154  A    between atoms: _396  and  _397
REMARK  155  A    between atoms: _396  and  _399
REMARK  156  A    between atoms: _399  and  _400
REMARK  157  A    between atoms: _400  and  _401
REMARK  158  A    between atoms: _401  and  _402
REMARK  159  A    between atoms: _402  and  CA_598
REMARK  160  A    between atoms: _404  and  _406
REMARK  161  A    between atoms: _406  and  _407
REMARK  162  A    between atoms: _406  and  _409
REMARK  163  A    between atoms: _409  and  _410
REMARK  164  A    between atoms: _410  and  _411
REMARK  165  A    between atoms: _414  and  _416
REMARK  166  A    between atoms: _416  and  _417
REMARK  167  A    between atoms: _416  and  _419
REMARK  168  A    between atoms: _419  and  _420
REMARK  169  A    between atoms: _422  and  _424
REMARK  170  A    between atoms: _424  and  _425
REMARK  171  A    between atoms: _428  and  _430
REMARK  172  A    between atoms: _430  and  _431
REMARK  173  A    between atoms: _430  and  _433
REMARK  174  A    between atoms: _433  and  _434
REMARK  175  A    between atoms: _434  and  _435
REMARK  176  A    between atoms: _435  and  _436
REMARK  177  A    between atoms: _445  and  _447
REMARK  178  A    between atoms: _447  and  _448
REMARK  179  A    between atoms: _450  and  _452
REMARK  180  A    between atoms: _452  and  _453
REMARK  181  A    between atoms: _452  and  _455
REMARK  182  A    between atoms: _455  and  _456
REMARK  183  A    between atoms: _459  and  _461
REMARK  184  A    between atoms: _461  and  _462
REMARK  185  A    between atoms: _461  and  _464
REMARK  186  A    between atoms: _464  and  _465
REMARK  187  A    between atoms: _465  and  _466
REMARK  188  A    between atoms: _469  and  _471
REMARK  189  A    between atoms: _471  and  _472
REMARK  190  A    between atoms: _471  and  _474
REMARK  191  A    between atoms: _474  and  _475
REMARK  192  A    between atoms: _480  and  _481
REMARK  193  A    between atoms: _483  and  _485
REMARK  194  A    between atoms: _485  and  _486
REMARK  195  A    between atoms: _485  and  _488
REMARK  196  A    between atoms: _488  and  _489
REMARK  197  A    between atoms: _489  and  _490
REMARK  198  A    between atoms: _493  and  _495
REMARK  199  A    between atoms: _495  and  _496
REMARK  200  A    between atoms: _495  and  _498
REMARK  201  A    between atoms: _498  and  _499
REMARK  202  A    between atoms: _501  and  _503
REMARK  203  A    between atoms: _503  and  _504
REMARK  204  A    between atoms: _503  and  _506
REMARK  205  A    between atoms: _506  and  _507
REMARK  206  A    between atoms: _513  and  _515
REMARK  207  A    between atoms: _515  and  _516
REMARK  208  A    between atoms: _518  and  _520
REMARK  209  A    between atoms: _520  and  _521
REMARK  210  A    between atoms: _523  and  _525
REMARK  211  A    between atoms: _525  and  _526
REMARK  212  A    between atoms: _525  and  _528
REMARK  213  A    between atoms: _528  and  _529
REMARK  214  A    between atoms: _532  and  _534
REMARK  215  A    between atoms: _534  and  _535
REMARK  216  A    between atoms: _534  and  _537
REMARK  217  A    between atoms: _537  and  _538
REMARK  218  A    between atoms: _541  and  _543
REMARK  219  A    between atoms: _543  and  _544
REMARK  220  A    between atoms: _547  and  _549
REMARK  221  A    between atoms: _549  and  _550
REMARK  222  A    between atoms: _549  and  _552
REMARK  223  A    between atoms: _552  and  _553
REMARK  224  A    between atoms: _558  and  _560
REMARK  225  A    between atoms: _560  and  _561
REMARK  226  A    between atoms: _560  and  _563
REMARK  227  A    between atoms: _563  and  _564
REMARK  228  A    between atoms: _569  and  _571
REMARK  229  A    between atoms: _571  and  _572
REMARK  230  A    between atoms: _571  and  _574
REMARK  231  A    between atoms: _574  and  _575
REMARK  232  A    between atoms: _577  and  _579
REMARK  233  A    between atoms: _579  and  _580
REMARK  234  A    between atoms: _579  and  _582
REMARK  235  A    between atoms: _582  and  _583
REMARK  236  A    between atoms: _583  and  _584
REMARK  237  A    between atoms: _589  and  _591
REMARK  238  A    between atoms: _591  and  _592
REMARK  239  A    between atoms: _591  and  _594
REMARK  240  A    between atoms: _594  and  _595
REMARK  241  A    between atoms: _595  and  _596
REMARK                            x       y       z     vdW  Elec       q    Type
REMARK                         _______ _______ _______ _____ _____    ______ ____
ROOT
ATOM      1  O   HOH     1      37.208  54.269  33.386  0.00  0.00    +0.000 OA
ENDROOT
TORSDOF 0
REMARK  Name = ../refined-set-2016/2zq0/2zq0_pocket.pdb
REMARK  241 active torsions:
REMARK  status: ('A' for Active; 'I' for Inactive)
REMARK    1  A    between atoms: _1  and  _3
REMARK    2  A    between atoms: _3  and  _4
REMARK    3  A    between atoms: _3  and  _6
REMARK    4  A    between atoms: _6  and  _7
REMARK    5  A    between atoms: _10  and  _12
REMARK    6  A    between atoms: _12  and  _13
REMARK    7  A    between atoms: _12  and  _15
REMARK    8  A    between atoms: _15  and  _16
REMARK    9  A    between atoms: _16  and  _17
REMARK   10  A    between atoms: _22  and  _24
REMARK   11  A    between atoms: _24  and  _25
REMARK   12  A    between atoms: _24  and  _27
REMARK   13  A    between atoms: _27  and  _28
REMARK   14  A    between atoms: _28  and  _29
REMARK   15  A    between atoms: _29  and  _31
REMARK   16  A    between atoms: _31  and  CA_598
REMARK   17  A    between atoms: _32  and  _34
REMARK   18  A    between atoms: _34  and  _35
REMARK   19  A    between atoms: _34  and  _37
REMARK   20  A    between atoms: _37  and  _38
REMARK   21  A    between atoms: _42  and  _43
REMARK   22  A    between atoms: _48  and  _50
REMARK   23  A    between atoms: _50  and  _51
REMARK   24  A    between atoms: _50  and  _53
REMARK   25  A    between atoms: _53  and  _54
REMARK   26  A    between atoms: _59  and  _61
REMARK   27  A    between atoms: _61  and  _62
REMARK   28  A    between atoms: _61  and  _64
REMARK   29  A    between atoms: _64  and  _65
REMARK   30  A    between atoms: _67  and  _69
REMARK   31  A    between atoms: _69  and  _70
REMARK   32  A    between atoms: _69  and  _72
REMARK   33  A    between atoms: _72  and  _73
REMARK   34  A    between atoms: _75  and  _77
REMARK   35  A    between atoms: _77  and  _78
REMARK   36  A    between atoms: _77  and  _80
REMARK   37  A    between atoms: _80  and  _81
REMARK   38  A    between atoms: _81  and  _82
REMARK   39  A    between atoms: _87  and  _89
REMARK   40  A    between atoms: _89  and  _90
REMARK   41  A    between atoms: _89  and  _92
REMARK   42  A    between atoms: _92  and  _93
REMARK   43  A    between atoms: _98  and  _99
REMARK   44  A    between atoms: _101  and  _103
REMARK   45  A    between atoms: _103  and  _104
REMARK   46  A    between atoms: _103  and  _106
REMARK   47  A    between atoms: _109  and  _111
REMARK   48  A    between atoms: _111  and  _112
REMARK   49  A    between atoms: _111  and  _114
REMARK   50  A    between atoms: _114  and  _115
REMARK   51  A    between atoms: _125  and  _127
REMARK   52  A    between atoms: _127  and  _128
REMARK   53  A    between atoms: _127  and  _130
REMARK   54  A    between atoms: _130  and  _131
REMARK   55  A    between atoms: _141  and  _143
REMARK   56  A    between atoms: _143  and  _144
REMARK   57  A    between atoms: _143  and  _146
REMARK   58  A    between atoms: _146  and  _147
REMARK   59  A    between atoms: _147  and  _148
REMARK   60  A    between atoms: _150  and  _152
REMARK   61  A    between atoms: _152  and  _153
REMARK   62  A    between atoms: _152  and  _155
REMARK   63  A    between atoms: _155  and  _156
REMARK   64  A    between atoms: _159  and  _161
REMARK   65  A    between atoms: _161  and  _162
REMARK   66  A    between atoms: _161  and  _164
REMARK   67  A    between atoms: _164  and  _165
REMARK   68  A    between atoms: _168  and  _170
REMARK   69  A    between atoms: _170  and  _171
REMARK   70  A    between atoms: _170  and  _173
REMARK   71  A    between atoms: _173  and  _174
REMARK   72  A    between atoms: _184  and  _186
REMARK   73  A    between atoms: _186  and  _187
REMARK   74  A    between atoms: _186  and  _189
REMARK   75  A    between atoms: _189  and  _190
REMARK   76  A    between atoms: _193  and  _195
REMARK   77  A    between atoms: _195  and  _196
REMARK   78  A    between atoms: _195  and  _198
REMARK   79  A    between atoms: _198  and  _199
REMARK   80  A    between atoms: _199  and  _200
REMARK   81  A    between atoms: _203  and  _205
REMARK   82  A    between atoms: _205  and  _206
REMARK   83  A    between atoms: _208  and  _210
REMARK   84  A    between atoms: _210  and  _211
REMARK   85  A    between atoms: _210  and  _213
REMARK   86  A    between atoms: _213  and  _214
REMARK   87  A    between atoms: _224  and  _226
REMARK   88  A    between atoms: _226  and  _227
REMARK   89  A    between atoms: _226  and  _229
REMARK   90  A    between atoms: _229  and  _230
REMARK   91  A    between atoms: _240  and  _242
REMARK   92  A    between atoms: _242  and  _243
REMARK   93  A    between atoms: _242  and  _245
REMARK   94  A    between atoms: _245  and  _246
REMARK   95  A    between atoms: _252  and  _254
REMARK   96  A    between atoms: _254  and  _255
REMARK   97  A    between atoms: _254  and  _257
REMARK   98  A    between atoms: _257  and  _258
REMARK   99  A    between atoms: _264  and  _266
REMARK  100  A    between atoms: _266  and  _267
REMARK  101  A    between atoms: _266  and  _269
REMARK  102  A    between atoms: _269  and  _270
REMARK  103  A    between atoms: _275  and  _277
REMARK  104  A    between atoms: _277  and  _278
REMARK  105  A    between atoms: _277  and  _280
REMARK  106  A    between atoms: _280  and  _281
REMARK  107  A    between atoms: _286  and  _288
REMARK  108  A    between atoms: _288  and  _289
REMARK  109  A    between atoms: _288  and  _291
REMARK  110  A    between atoms: _291  and  _292
REMARK  111  A    between atoms: _292  and  _293
REMARK  112  A    between atoms: _296  and  _298
REMARK  113  A    between atoms: _298  and  _299
REMARK  114  A    between atoms: _298  and  _301
REMARK  115  A    between atoms: _301  and  _302
REMARK  116  A    between atoms: _305  and  _307
REMARK  117  A    between atoms: _307  and  _308
REMARK  118  A    between atoms: _307  and  _310
REMARK  119  A    between atoms: _310  and  _311
REMARK  120  A    between atoms: _313  and  _315
REMARK  121  A    between atoms: _315  and  _316
REMARK  122  A    between atoms: _315  and  _318
REMARK  123  A    between atoms: _318  and  _319
REMARK  124  A    between atoms: _319  and  _320
REMARK  125  A    between atoms: _320  and  _321
REMARK  126  A    between atoms: _321  and  _322
REMARK  127  A    between atoms: _326  and  _328
REMARK  128  A    between atoms: _328  and  _329
REMARK  129  A    between atoms: _328  and  _331
REMARK  130  A    between atoms: _331  and  _332
REMARK  131  A    between atoms: _334  and  _336
REMARK  132  A    between atoms: _336  and  _337
REMARK  133  A    between atoms: _339  and  _341
REMARK  134  A    between atoms: _341  and  _342
REMARK  135  A    between atoms: _341  and  _344
REMARK  136  A    between atoms: _344  and  _345
REMARK  137  A    between atoms: _350  and  _351
REMARK  138  A    between atoms: _353  and  _355
REMARK  139  A    between atoms: _355  and  _356
REMARK  140  A    between atoms: _355  and  _358
REMARK  141  A    between atoms: _361  and  _363
REMARK  142  A    between atoms: _363  and  _364
REMARK  143  A    between atoms: _366  and  _368
REMARK  144  A    between atoms: _368  and  _369
REMARK  145  A    between atoms: _368  and  _371
REMARK  146  A    between atoms: _371  and  _372
REMARK  147  A    between atoms: _377  and  _379
REMARK  148  A    between atoms: _379  and  _380
REMARK  149  A    between atoms: _383  and  _385
REMARK  150  A    between atoms: _385  and  _386
REMARK  151  A    between atoms: _385  and  _388
REMARK  152  A    between atoms: _388  and  _389
REMARK  153  A    between atoms: _394  and  _396
REMARK  154  A    between atoms: _396  and  _397
REMARK  155  A    between atoms: _396  and  _399
REMARK  156  A    between atoms: _399  and  _400
REMARK  157  A    between atoms: _400  and  _401
REMARK  158  A    between atoms: _401  and  _402
REMARK  159  A    between atoms: _402  and  CA_598
REMARK  160  A    between atoms: _404  and  _406
REMARK  161  A    between atoms: _406  and  _407
REMARK  162  A    between atoms: _406  and  _409
REMARK  163  A    between atoms: _409  and  _410
REMARK  164  A    between atoms: _410  and  _411
REMARK  165  A    between atoms: _414  and  _416
REMARK  166  A    between atoms: _416  and  _417
REMARK  167  A    between atoms: _416  and  _419
REMARK  168  A    between atoms: _419  and  _420
REMARK  169  A    between atoms: _422  and  _424
REMARK  170  A    between atoms: _424  and  _425
REMARK  171  A    between atoms: _428  and  _430
REMARK  172  A    between atoms: _430  and  _431
REMARK  173  A    between atoms: _430  and  _433
REMARK  174  A    between atoms: _433  and  _434
REMARK  175  A    between atoms: _434  and  _435
REMARK  176  A    between atoms: _435  and  _436
REMARK  177  A    between atoms: _445  and  _447
REMARK  178  A    between atoms: _447  and  _448
REMARK  179  A    between atoms: _450  and  _452
REMARK  180  A    between atoms: _452  and  _453
REMARK  181  A    between atoms: _452  and  _455
REMARK  182  A    between atoms: _455  and  _456
REMARK  183  A    between atoms: _459  and  _461
REMARK  184  A    between atoms: _461  and  _462
REMARK  185  A    between atoms: _461  and  _464
REMARK  186  A    between atoms: _464  and  _465
REMARK  187  A    between atoms: _465  and  _466
REMARK  188  A    between atoms: _469  and  _471
REMARK  189  A    between atoms: _471  and  _472
REMARK  190  A    between atoms: _471  and  _474
REMARK  191  A    between atoms: _474  and  _475
REMARK  192  A    between atoms: _480  and  _481
REMARK  193  A    between atoms: _483  and  _485
REMARK  194  A    between atoms: _485  and  _486
REMARK  195  A    between atoms: _485  and  _488
REMARK  196  A    between atoms: _488  and  _489
REMARK  197  A    between atoms: _489  and  _490
REMARK  198  A    between atoms: _493  and  _495
REMARK  199  A    between atoms: _495  and  _496
REMARK  200  A    between atoms: _495  and  _498
REMARK  201  A    between atoms: _498  and  _499
REMARK  202  A    between atoms: _501  and  _503
REMARK  203  A    between atoms: _503  and  _504
REMARK  204  A    between atoms: _503  and  _506
REMARK  205  A    between atoms: _506  and  _507
REMARK  206  A    between atoms: _513  and  _515
REMARK  207  A    between atoms: _515  and  _516
REMARK  208  A    between atoms: _518  and  _520
REMARK  209  A    between atoms: _520  and  _521
REMARK  210  A    between atoms: _523  and  _525
REMARK  211  A    between atoms: _525  and  _526
REMARK  212  A    between atoms: _525  and  _528
REMARK  213  A    between atoms: _528  and  _529
REMARK  214  A    between atoms: _532  and  _534
REMARK  215  A    between atoms: _534  and  _535
REMARK  216  A    between atoms: _534  and  _537
REMARK  217  A    between atoms: _537  and  _538
REMARK  218  A    between atoms: _541  and  _543
REMARK  219  A    between atoms: _543  and  _544
REMARK  220  A    between atoms: _547  and  _549
REMARK  221  A    between atoms: _549  and  _550
REMARK  222  A    between atoms: _549  and  _552
REMARK  223  A    between atoms: _552  and  _553
REMARK  224  A    between atoms: _558  and  _560
REMARK  225  A    between atoms: _560  and  _561
REMARK  226  A    between atoms: _560  and  _563
REMARK  227  A    between atoms: _563  and  _564
REMARK  228  A    between atoms: _569  and  _571
REMARK  229  A    between atoms: _571  and  _572
REMARK  230  A    between atoms: _571  and  _574
REMARK  231  A    between atoms: _574  and  _575
REMARK  232  A    between atoms: _577  and  _579
REMARK  233  A    between atoms: _579  and  _580
REMARK  234  A    between atoms: _579  and  _582
REMARK  235  A    between atoms: _582  and  _583
REMARK  236  A    between atoms: _583  and  _584
REMARK  237  A    between atoms: _589  and  _591
REMARK  238  A    between atoms: _591  and  _592
REMARK  239  A    between atoms: _591  and  _594
REMARK  240  A    between atoms: _594  and  _595
REMARK  241  A    between atoms: _595  and  _596
REMARK                            x       y       z     vdW  Elec       q    Type
REMARK                         _______ _______ _______ _____ _____    ______ ____
ROOT
ATOM      1  O   HOH     1      32.746  45.121  31.117  0.00  0.00    +0.000 OA
ENDROOT
TORSDOF 0
REMARK  Name = ../refined-set-2016/2zq0/2zq0_pocket.pdb
REMARK  241 active torsions:
REMARK  status: ('A' for Active; 'I' for Inactive)
REMARK    1  A    between atoms: _1  and  _3
REMARK    2  A    between atoms: _3  and  _4
REMARK    3  A    between atoms: _3  and  _6
REMARK    4  A    between atoms: _6  and  _7
REMARK    5  A    between atoms: _10  and  _12
REMARK    6  A    between atoms: _12  and  _13
REMARK    7  A    between atoms: _12  and  _15
REMARK    8  A    between atoms: _15  and  _16
REMARK    9  A    between atoms: _16  and  _17
REMARK   10  A    between atoms: _22  and  _24
REMARK   11  A    between atoms: _24  and  _25
REMARK   12  A    between atoms: _24  and  _27
REMARK   13  A    between atoms: _27  and  _28
REMARK   14  A    between atoms: _28  and  _29
REMARK   15  A    between atoms: _29  and  _31
REMARK   16  A    between atoms: _31  and  CA_598
REMARK   17  A    between atoms: _32  and  _34
REMARK   18  A    between atoms: _34  and  _35
REMARK   19  A    between atoms: _34  and  _37
REMARK   20  A    between atoms: _37  and  _38
REMARK   21  A    between atoms: _42  and  _43
REMARK   22  A    between atoms: _48  and  _50
REMARK   23  A    between atoms: _50  and  _51
REMARK   24  A    between atoms: _50  and  _53
REMARK   25  A    between atoms: _53  and  _54
REMARK   26  A    between atoms: _59  and  _61
REMARK   27  A    between atoms: _61  and  _62
REMARK   28  A    between atoms: _61  and  _64
REMARK   29  A    between atoms: _64  and  _65
REMARK   30  A    between atoms: _67  and  _69
REMARK   31  A    between atoms: _69  and  _70
REMARK   32  A    between atoms: _69  and  _72
REMARK   33  A    between atoms: _72  and  _73
REMARK   34  A    between atoms: _75  and  _77
REMARK   35  A    between atoms: _77  and  _78
REMARK   36  A    between atoms: _77  and  _80
REMARK   37  A    between atoms: _80  and  _81
REMARK   38  A    between atoms: _81  and  _82
REMARK   39  A    between atoms: _87  and  _89
REMARK   40  A    between atoms: _89  and  _90
REMARK   41  A    between atoms: _89  and  _92
REMARK   42  A    between atoms: _92  and  _93
REMARK   43  A    between atoms: _98  and  _99
REMARK   44  A    between atoms: _101  and  _103
REMARK   45  A    between atoms: _103  and  _104
REMARK   46  A    between atoms: _103  and  _106
REMARK   47  A    between atoms: _109  and  _111
REMARK   48  A    between atoms: _111  and  _112
REMARK   49  A    between atoms: _111  and  _114
REMARK   50  A    between atoms: _114  and  _115
REMARK   51  A    between atoms: _125  and  _127
REMARK   52  A    between atoms: _127  and  _128
REMARK   53  A    between atoms: _127  and  _130
REMARK   54  A    between atoms: _130  and  _131
REMARK   55  A    between atoms: _141  and  _143
REMARK   56  A    between atoms: _143  and  _144
REMARK   57  A    between atoms: _143  and  _146
REMARK   58  A    between atoms: _146  and  _147
REMARK   59  A    between atoms: _147  and  _148
REMARK   60  A    between atoms: _150  and  _152
REMARK   61  A    between atoms: _152  and  _153
REMARK   62  A    between atoms: _152  and  _155
REMARK   63  A    between atoms: _155  and  _156
REMARK   64  A    between atoms: _159  and  _161
REMARK   65  A    between atoms: _161  and  _162
REMARK   66  A    between atoms: _161  and  _164
REMARK   67  A    between atoms: _164  and  _165
REMARK   68  A    between atoms: _168  and  _170
REMARK   69  A    between atoms: _170  and  _171
REMARK   70  A    between atoms: _170  and  _173
REMARK   71  A    between atoms: _173  and  _174
REMARK   72  A    between atoms: _184  and  _186
REMARK   73  A    between atoms: _186  and  _187
REMARK   74  A    between atoms: _186  and  _189
REMARK   75  A    between atoms: _189  and  _190
REMARK   76  A    between atoms: _193  and  _195
REMARK   77  A    between atoms: _195  and  _196
REMARK   78  A    between atoms: _195  and  _198
REMARK   79  A    between atoms: _198  and  _199
REMARK   80  A    between atoms: _199  and  _200
REMARK   81  A    between atoms: _203  and  _205
REMARK   82  A    between atoms: _205  and  _206
REMARK   83  A    between atoms: _208  and  _210
REMARK   84  A    between atoms: _210  and  _211
REMARK   85  A    between atoms: _210  and  _213
REMARK   86  A    between atoms: _213  and  _214
REMARK   87  A    between atoms: _224  and  _226
REMARK   88  A    between atoms: _226  and  _227
REMARK   89  A    between atoms: _226  and  _229
REMARK   90  A    between atoms: _229  and  _230
REMARK   91  A    between atoms: _240  and  _242
REMARK   92  A    between atoms: _242  and  _243
REMARK   93  A    between atoms: _242  and  _245
REMARK   94  A    between atoms: _245  and  _246
REMARK   95  A    between atoms: _252  and  _254
REMARK   96  A    between atoms: _254  and  _255
REMARK   97  A    between atoms: _254  and  _257
REMARK   98  A    between atoms: _257  and  _258
REMARK   99  A    between atoms: _264  and  _266
REMARK  100  A    between atoms: _266  and  _267
REMARK  101  A    between atoms: _266  and  _269
REMARK  102  A    between atoms: _269  and  _270
REMARK  103  A    between atoms: _275  and  _277
REMARK  104  A    between atoms: _277  and  _278
REMARK  105  A    between atoms: _277  and  _280
REMARK  106  A    between atoms: _280  and  _281
REMARK  107  A    between atoms: _286  and  _288
REMARK  108  A    between atoms: _288  and  _289
REMARK  109  A    between atoms: _288  and  _291
REMARK  110  A    between atoms: _291  and  _292
REMARK  111  A    between atoms: _292  and  _293
REMARK  112  A    between atoms: _296  and  _298
REMARK  113  A    between atoms: _298  and  _299
REMARK  114  A    between atoms: _298  and  _301
REMARK  115  A    between atoms: _301  and  _302
REMARK  116  A    between atoms: _305  and  _307
REMARK  117  A    between atoms: _307  and  _308
REMARK  118  A    between atoms: _307  and  _310
REMARK  119  A    between atoms: _310  and  _311
REMARK  120  A    between atoms: _313  and  _315
REMARK  121  A    between atoms: _315  and  _316
REMARK  122  A    between atoms: _315  and  _318
REMARK  123  A    between atoms: _318  and  _319
REMARK  124  A    between atoms: _319  and  _320
REMARK  125  A    between atoms: _320  and  _321
REMARK  126  A    between atoms: _321  and  _322
REMARK  127  A    between atoms: _326  and  _328
REMARK  128  A    between atoms: _328  and  _329
REMARK  129  A    between atoms: _328  and  _331
REMARK  130  A    between atoms: _331  and  _332
REMARK  131  A    between atoms: _334  and  _336
REMARK  132  A    between atoms: _336  and  _337
REMARK  133  A    between atoms: _339  and  _341
REMARK  134  A    between atoms: _341  and  _342
REMARK  135  A    between atoms: _341  and  _344
REMARK  136  A    between atoms: _344  and  _345
REMARK  137  A    between atoms: _350  and  _351
REMARK  138  A    between atoms: _353  and  _355
REMARK  139  A    between atoms: _355  and  _356
REMARK  140  A    between atoms: _355  and  _358
REMARK  141  A    between atoms: _361  and  _363
REMARK  142  A    between atoms: _363  and  _364
REMARK  143  A    between atoms: _366  and  _368
REMARK  144  A    between atoms: _368  and  _369
REMARK  145  A    between atoms: _368  and  _371
REMARK  146  A    between atoms: _371  and  _372
REMARK  147  A    between atoms: _377  and  _379
REMARK  148  A    between atoms: _379  and  _380
REMARK  149  A    between atoms: _383  and  _385
REMARK  150  A    between atoms: _385  and  _386
REMARK  151  A    between atoms: _385  and  _388
REMARK  152  A    between atoms: _388  and  _389
REMARK  153  A    between atoms: _394  and  _396
REMARK  154  A    between atoms: _396  and  _397
REMARK  155  A    between atoms: _396  and  _399
REMARK  156  A    between atoms: _399  and  _400
REMARK  157  A    between atoms: _400  and  _401
REMARK  158  A    between atoms: _401  and  _402
REMARK  159  A    between atoms: _402  and  CA_598
REMARK  160  A    between atoms: _404  and  _406
REMARK  161  A    between atoms: _406  and  _407
REMARK  162  A    between atoms: _406  and  _409
REMARK  163  A    between atoms: _409  and  _410
REMARK  164  A    between atoms: _410  and  _411
REMARK  165  A    between atoms: _414  and  _416
REMARK  166  A    between atoms: _416  and  _417
REMARK  167  A    between atoms: _416  and  _419
REMARK  168  A    between atoms: _419  and  _420
REMARK  169  A    between atoms: _422  and  _424
REMARK  170  A    between atoms: _424  and  _425
REMARK  171  A    between atoms: _428  and  _430
REMARK  172  A    between atoms: _430  and  _431
REMARK  173  A    between atoms: _430  and  _433
REMARK  174  A    between atoms: _433  and  _434
REMARK  175  A    between atoms: _434  and  _435
REMARK  176  A    between atoms: _435  and  _436
REMARK  177  A    between atoms: _445  and  _447
REMARK  178  A    between atoms: _447  and  _448
REMARK  179  A    between atoms: _450  and  _452
REMARK  180  A    between atoms: _452  and  _453
REMARK  181  A    between atoms: _452  and  _455
REMARK  182  A    between atoms: _455  and  _456
REMARK  183  A    between atoms: _459  and  _461
REMARK  184  A    between atoms: _461  and  _462
REMARK  185  A    between atoms: _461  and  _464
REMARK  186  A    between atoms: _464  and  _465
REMARK  187  A    between atoms: _465  and  _466
REMARK  188  A    between atoms: _469  and  _471
REMARK  189  A    between atoms: _471  and  _472
REMARK  190  A    between atoms: _471  and  _474
REMARK  191  A    between atoms: _474  and  _475
REMARK  192  A    between atoms: _480  and  _481
REMARK  193  A    between atoms: _483  and  _485
REMARK  194  A    between atoms: _485  and  _486
REMARK  195  A    between atoms: _485  and  _488
REMARK  196  A    between atoms: _488  and  _489
REMARK  197  A    between atoms: _489  and  _490
REMARK  198  A    between atoms: _493  and  _495
REMARK  199  A    between atoms: _495  and  _496
REMARK  200  A    between atoms: _495  and  _498
REMARK  201  A    between atoms: _498  and  _499
REMARK  202  A    between atoms: _501  and  _503
REMARK  203  A    between atoms: _503  and  _504
REMARK  204  A    between atoms: _503  and  _506
REMARK  205  A    between atoms: _506  and  _507
REMARK  206  A    between atoms: _513  and  _515
REMARK  207  A    between atoms: _515  and  _516
REMARK  208  A    between atoms: _518  and  _520
REMARK  209  A    between atoms: _520  and  _521
REMARK  210  A    between atoms: _523  and  _525
REMARK  211  A    between atoms: _525  and  _526
REMARK  212  A    between atoms: _525  and  _528
REMARK  213  A    between atoms: _528  and  _529
REMARK  214  A    between atoms: _532  and  _534
REMARK  215  A    between atoms: _534  and  _535
REMARK  216  A    between atoms: _534  and  _537
REMARK  217  A    between atoms: _537  and  _538
REMARK  218  A    between atoms: _541  and  _543
REMARK  219  A    between atoms: _543  and  _544
REMARK  220  A    between atoms: _547  and  _549
REMARK  221  A    between atoms: _549  and  _550
REMARK  222  A    between atoms: _549  and  _552
REMARK  223  A    between atoms: _552  and  _553
REMARK  224  A    between atoms: _558  and  _560
REMARK  225  A    between atoms: _560  and  _561
REMARK  226  A    between atoms: _560  and  _563
REMARK  227  A    between atoms: _563  and  _564
REMARK  228  A    between atoms: _569  and  _571
REMARK  229  A    between atoms: _571  and  _572
REMARK  230  A    between atoms: _571  and  _574
REMARK  231  A    between atoms: _574  and  _575
REMARK  232  A    between atoms: _577  and  _579
REMARK  233  A    between atoms: _579  and  _580
REMARK  234  A    between atoms: _579  and  _582
REMARK  235  A    between atoms: _582  and  _583
REMARK  236  A    between atoms: _583  and  _584
REMARK  237  A    between atoms: _589  and  _591
REMARK  238  A    between atoms: _591  and  _592
REMARK  239  A    between atoms: _591  and  _594
REMARK  240  A    between atoms: _594  and  _595
REMARK  241  A    between atoms: _595  and  _596
REMARK                            x       y       z     vdW  Elec       q    Type
REMARK                         _______ _______ _______ _____ _____    ______ ____
ROOT
ATOM      1  O   HOH     1      35.582  58.230  36.142  0.00  0.00    +0.000 OA
ENDROOT
TORSDOF 0
REMARK  Name = ../refined-set-2016/2zq0/2zq0_pocket.pdb
REMARK  241 active torsions:
REMARK  status: ('A' for Active; 'I' for Inactive)
REMARK    1  A    between atoms: _1  and  _3
REMARK    2  A    between atoms: _3  and  _4
REMARK    3  A    between atoms: _3  and  _6
REMARK    4  A    between atoms: _6  and  _7
REMARK    5  A    between atoms: _10  and  _12
REMARK    6  A    between atoms: _12  and  _13
REMARK    7  A    between atoms: _12  and  _15
REMARK    8  A    between atoms: _15  and  _16
REMARK    9  A    between atoms: _16  and  _17
REMARK   10  A    between atoms: _22  and  _24
REMARK   11  A    between atoms: _24  and  _25
REMARK   12  A    between atoms: _24  and  _27
REMARK   13  A    between atoms: _27  and  _28
REMARK   14  A    between atoms: _28  and  _29
REMARK   15  A    between atoms: _29  and  _31
REMARK   16  A    between atoms: _31  and  CA_598
REMARK   17  A    between atoms: _32  and  _34
REMARK   18  A    between atoms: _34  and  _35
REMARK   19  A    between atoms: _34  and  _37
REMARK   20  A    between atoms: _37  and  _38
REMARK   21  A    between atoms: _42  and  _43
REMARK   22  A    between atoms: _48  and  _50
REMARK   23  A    between atoms: _50  and  _51
REMARK   24  A    between atoms: _50  and  _53
REMARK   25  A    between atoms: _53  and  _54
REMARK   26  A    between atoms: _59  and  _61
REMARK   27  A    between atoms: _61  and  _62
REMARK   28  A    between atoms: _61  and  _64
REMARK   29  A    between atoms: _64  and  _65
REMARK   30  A    between atoms: _67  and  _69
REMARK   31  A    between atoms: _69  and  _70
REMARK   32  A    between atoms: _69  and  _72
REMARK   33  A    between atoms: _72  and  _73
REMARK   34  A    between atoms: _75  and  _77
REMARK   35  A    between atoms: _77  and  _78
REMARK   36  A    between atoms: _77  and  _80
REMARK   37  A    between atoms: _80  and  _81
REMARK   38  A    between atoms: _81  and  _82
REMARK   39  A    between atoms: _87  and  _89
REMARK   40  A    between atoms: _89  and  _90
REMARK   41  A    between atoms: _89  and  _92
REMARK   42  A    between atoms: _92  and  _93
REMARK   43  A    between atoms: _98  and  _99
REMARK   44  A    between atoms: _101  and  _103
REMARK   45  A    between atoms: _103  and  _104
REMARK   46  A    between atoms: _103  and  _106
REMARK   47  A    between atoms: _109  and  _111
REMARK   48  A    between atoms: _111  and  _112
REMARK   49  A    between atoms: _111  and  _114
REMARK   50  A    between atoms: _114  and  _115
REMARK   51  A    between atoms: _125  and  _127
REMARK   52  A    between atoms: _127  and  _128
REMARK   53  A    between atoms: _127  and  _130
REMARK   54  A    between atoms: _130  and  _131
REMARK   55  A    between atoms: _141  and  _143
REMARK   56  A    between atoms: _143  and  _144
REMARK   57  A    between atoms: _143  and  _146
REMARK   58  A    between atoms: _146  and  _147
REMARK   59  A    between atoms: _147  and  _148
REMARK   60  A    between atoms: _150  and  _152
REMARK   61  A    between atoms: _152  and  _153
REMARK   62  A    between atoms: _152  and  _155
REMARK   63  A    between atoms: _155  and  _156
REMARK   64  A    between atoms: _159  and  _161
REMARK   65  A    between atoms: _161  and  _162
REMARK   66  A    between atoms: _161  and  _164
REMARK   67  A    between atoms: _164  and  _165
REMARK   68  A    between atoms: _168  and  _170
REMARK   69  A    between atoms: _170  and  _171
REMARK   70  A    between atoms: _170  and  _173
REMARK   71  A    between atoms: _173  and  _174
REMARK   72  A    between atoms: _184  and  _186
REMARK   73  A    between atoms: _186  and  _187
REMARK   74  A    between atoms: _186  and  _189
REMARK   75  A    between atoms: _189  and  _190
REMARK   76  A    between atoms: _193  and  _195
REMARK   77  A    between atoms: _195  and  _196
REMARK   78  A    between atoms: _195  and  _198
REMARK   79  A    between atoms: _198  and  _199
REMARK   80  A    between atoms: _199  and  _200
REMARK   81  A    between atoms: _203  and  _205
REMARK   82  A    between atoms: _205  and  _206
REMARK   83  A    between atoms: _208  and  _210
REMARK   84  A    between atoms: _210  and  _211
REMARK   85  A    between atoms: _210  and  _213
REMARK   86  A    between atoms: _213  and  _214
REMARK   87  A    between atoms: _224  and  _226
REMARK   88  A    between atoms: _226  and  _227
REMARK   89  A    between atoms: _226  and  _229
REMARK   90  A    between atoms: _229  and  _230
REMARK   91  A    between atoms: _240  and  _242
REMARK   92  A    between atoms: _242  and  _243
REMARK   93  A    between atoms: _242  and  _245
REMARK   94  A    between atoms: _245  and  _246
REMARK   95  A    between atoms: _252  and  _254
REMARK   96  A    between atoms: _254  and  _255
REMARK   97  A    between atoms: _254  and  _257
REMARK   98  A    between atoms: _257  and  _258
REMARK   99  A    between atoms: _264  and  _266
REMARK  100  A    between atoms: _266  and  _267
REMARK  101  A    between atoms: _266  and  _269
REMARK  102  A    between atoms: _269  and  _270
REMARK  103  A    between atoms: _275  and  _277
REMARK  104  A    between atoms: _277  and  _278
REMARK  105  A    between atoms: _277  and  _280
REMARK  106  A    between atoms: _280  and  _281
REMARK  107  A    between atoms: _286  and  _288
REMARK  108  A    between atoms: _288  and  _289
REMARK  109  A    between atoms: _288  and  _291
REMARK  110  A    between atoms: _291  and  _292
REMARK  111  A    between atoms: _292  and  _293
REMARK  112  A    between atoms: _296  and  _298
REMARK  113  A    between atoms: _298  and  _299
REMARK  114  A    between atoms: _298  and  _301
REMARK  115  A    between atoms: _301  and  _302
REMARK  116  A    between atoms: _305  and  _307
REMARK  117  A    between atoms: _307  and  _308
REMARK  118  A    between atoms: _307  and  _310
REMARK  119  A    between atoms: _310  and  _311
REMARK  120  A    between atoms: _313  and  _315
REMARK  121  A    between atoms: _315  and  _316
REMARK  122  A    between atoms: _315  and  _318
REMARK  123  A    between atoms: _318  and  _319
REMARK  124  A    between atoms: _319  and  _320
REMARK  125  A    between atoms: _320  and  _321
REMARK  126  A    between atoms: _321  and  _322
REMARK  127  A    between atoms: _326  and  _328
REMARK  128  A    between atoms: _328  and  _329
REMARK  129  A    between atoms: _328  and  _331
REMARK  130  A    between atoms: _331  and  _332
REMARK  131  A    between atoms: _334  and  _336
REMARK  132  A    between atoms: _336  and  _337
REMARK  133  A    between atoms: _339  and  _341
REMARK  134  A    between atoms: _341  and  _342
REMARK  135  A    between atoms: _341  and  _344
REMARK  136  A    between atoms: _344  and  _345
REMARK  137  A    between atoms: _350  and  _351
REMARK  138  A    between atoms: _353  and  _355
REMARK  139  A    between atoms: _355  and  _356
REMARK  140  A    between atoms: _355  and  _358
REMARK  141  A    between atoms: _361  and  _363
REMARK  142  A    between atoms: _363  and  _364
REMARK  143  A    between atoms: _366  and  _368
REMARK  144  A    between atoms: _368  and  _369
REMARK  145  A    between atoms: _368  and  _371
REMARK  146  A    between atoms: _371  and  _372
REMARK  147  A    between atoms: _377  and  _379
REMARK  148  A    between atoms: _379  and  _380
REMARK  149  A    between atoms: _383  and  _385
REMARK  150  A    between atoms: _385  and  _386
REMARK  151  A    between atoms: _385  and  _388
REMARK  152  A    between atoms: _388  and  _389
REMARK  153  A    between atoms: _394  and  _396
REMARK  154  A    between atoms: _396  and  _397
REMARK  155  A    between atoms: _396  and  _399
REMARK  156  A    between atoms: _399  and  _400
REMARK  157  A    between atoms: _400  and  _401
REMARK  158  A    between atoms: _401  and  _402
REMARK  159  A    between atoms: _402  and  CA_598
REMARK  160  A    between atoms: _404  and  _406
REMARK  161  A    between atoms: _406  and  _407
REMARK  162  A    between atoms: _406  and  _409
REMARK  163  A    between atoms: _409  and  _410
REMARK  164  A    between atoms: _410  and  _411
REMARK  165  A    between atoms: _414  and  _416
REMARK  166  A    between atoms: _416  and  _417
REMARK  167  A    between atoms: _416  and  _419
REMARK  168  A    between atoms: _419  and  _420
REMARK  169  A    between atoms: _422  and  _424
REMARK  170  A    between atoms: _424  and  _425
REMARK  171  A    between atoms: _428  and  _430
REMARK  172  A    between atoms: _430  and  _431
REMARK  173  A    between atoms: _430  and  _433
REMARK  174  A    between atoms: _433  and  _434
REMARK  175  A    between atoms: _434  and  _435
REMARK  176  A    between atoms: _435  and  _436
REMARK  177  A    between atoms: _445  and  _447
REMARK  178  A    between atoms: _447  and  _448
REMARK  179  A    between atoms: _450  and  _452
REMARK  180  A    between atoms: _452  and  _453
REMARK  181  A    between atoms: _452  and  _455
REMARK  182  A    between atoms: _455  and  _456
REMARK  183  A    between atoms: _459  and  _461
REMARK  184  A    between atoms: _461  and  _462
REMARK  185  A    between atoms: _461  and  _464
REMARK  186  A    between atoms: _464  and  _465
REMARK  187  A    between atoms: _465  and  _466
REMARK  188  A    between atoms: _469  and  _471
REMARK  189  A    between atoms: _471  and  _472
REMARK  190  A    between atoms: _471  and  _474
REMARK  191  A    between atoms: _474  and  _475
REMARK  192  A    between atoms: _480  and  _481
REMARK  193  A    between atoms: _483  and  _485
REMARK  194  A    between atoms: _485  and  _486
REMARK  195  A    between atoms: _485  and  _488
REMARK  196  A    between atoms: _488  and  _489
REMARK  197  A    between atoms: _489  and  _490
REMARK  198  A    between atoms: _493  and  _495
REMARK  199  A    between atoms: _495  and  _496
REMARK  200  A    between atoms: _495  and  _498
REMARK  201  A    between atoms: _498  and  _499
REMARK  202  A    between atoms: _501  and  _503
REMARK  203  A    between atoms: _503  and  _504
REMARK  204  A    between atoms: _503  and  _506
REMARK  205  A    between atoms: _506  and  _507
REMARK  206  A    between atoms: _513  and  _515
REMARK  207  A    between atoms: _515  and  _516
REMARK  208  A    between atoms: _518  and  _520
REMARK  209  A    between atoms: _520  and  _521
REMARK  210  A    between atoms: _523  and  _525
REMARK  211  A    between atoms: _525  and  _526
REMARK  212  A    between atoms: _525  and  _528
REMARK  213  A    between atoms: _528  and  _529
REMARK  214  A    between atoms: _532  and  _534
REMARK  215  A    between atoms: _534  and  _535
REMARK  216  A    between atoms: _534  and  _537
REMARK  217  A    between atoms: _537  and  _538
REMARK  218  A    between atoms: _541  and  _543
REMARK  219  A    between atoms: _543  and  _544
REMARK  220  A    between atoms: _547  and  _549
REMARK  221  A    between atoms: _549  and  _550
REMARK  222  A    between atoms: _549  and  _552
REMARK  223  A    between atoms: _552  and  _553
REMARK  224  A    between atoms: _558  and  _560
REMARK  225  A    between atoms: _560  and  _561
REMARK  226  A    between atoms: _560  and  _563
REMARK  227  A    between atoms: _563  and  _564
REMARK  228  A    between atoms: _569  and  _571
REMARK  229  A    between atoms: _571  and  _572
REMARK  230  A    between atoms: _571  and  _574
REMARK  231  A    between atoms: _574  and  _575
REMARK  232  A    between atoms: _577  and  _579
REMARK  233  A    between atoms: _579  and  _580
REMARK  234  A    between atoms: _579  and  _582
REMARK  235  A    between atoms: _582  and  _583
REMARK  236  A    between atoms: _583  and  _584
REMARK  237  A    between atoms: _589  and  _591
REMARK  238  A    between atoms: _591  and  _592
REMARK  239  A    between atoms: _591  and  _594
REMARK  240  A    between atoms: _594  and  _595
REMARK  241  A    between atoms: _595  and  _596
REMARK                            x       y       z     vdW  Elec       q    Type
REMARK                         _______ _______ _______ _____ _____    ______ ____
ROOT
ATOM      1  O   HOH     1      31.697  61.794  32.925  0.00  0.00    +0.000 OA
ENDROOT
TORSDOF 0
REMARK  Name = ../refined-set-2016/2zq0/2zq0_pocket.pdb
REMARK  241 active torsions:
REMARK  status: ('A' for Active; 'I' for Inactive)
REMARK    1  A    between atoms: _1  and  _3
REMARK    2  A    between atoms: _3  and  _4
REMARK    3  A    between atoms: _3  and  _6
REMARK    4  A    between atoms: _6  and  _7
REMARK    5  A    between atoms: _10  and  _12
REMARK    6  A    between atoms: _12  and  _13
REMARK    7  A    between atoms: _12  and  _15
REMARK    8  A    between atoms: _15  and  _16
REMARK    9  A    between atoms: _16  and  _17
REMARK   10  A    between atoms: _22  and  _24
REMARK   11  A    between atoms: _24  and  _25
REMARK   12  A    between atoms: _24  and  _27
REMARK   13  A    between atoms: _27  and  _28
REMARK   14  A    between atoms: _28  and  _29
REMARK   15  A    between atoms: _29  and  _31
REMARK   16  A    between atoms: _31  and  CA_598
REMARK   17  A    between atoms: _32  and  _34
REMARK   18  A    between atoms: _34  and  _35
REMARK   19  A    between atoms: _34  and  _37
REMARK   20  A    between atoms: _37  and  _38
REMARK   21  A    between atoms: _42  and  _43
REMARK   22  A    between atoms: _48  and  _50
REMARK   23  A    between atoms: _50  and  _51
REMARK   24  A    between atoms: _50  and  _53
REMARK   25  A    between atoms: _53  and  _54
REMARK   26  A    between atoms: _59  and  _61
REMARK   27  A    between atoms: _61  and  _62
REMARK   28  A    between atoms: _61  and  _64
REMARK   29  A    between atoms: _64  and  _65
REMARK   30  A    between atoms: _67  and  _69
REMARK   31  A    between atoms: _69  and  _70
REMARK   32  A    between atoms: _69  and  _72
REMARK   33  A    between atoms: _72  and  _73
REMARK   34  A    between atoms: _75  and  _77
REMARK   35  A    between atoms: _77  and  _78
REMARK   36  A    between atoms: _77  and  _80
REMARK   37  A    between atoms: _80  and  _81
REMARK   38  A    between atoms: _81  and  _82
REMARK   39  A    between atoms: _87  and  _89
REMARK   40  A    between atoms: _89  and  _90
REMARK   41  A    between atoms: _89  and  _92
REMARK   42  A    between atoms: _92  and  _93
REMARK   43  A    between atoms: _98  and  _99
REMARK   44  A    between atoms: _101  and  _103
REMARK   45  A    between atoms: _103  and  _104
REMARK   46  A    between atoms: _103  and  _106
REMARK   47  A    between atoms: _109  and  _111
REMARK   48  A    between atoms: _111  and  _112
REMARK   49  A    between atoms: _111  and  _114
REMARK   50  A    between atoms: _114  and  _115
REMARK   51  A    between atoms: _125  and  _127
REMARK   52  A    between atoms: _127  and  _128
REMARK   53  A    between atoms: _127  and  _130
REMARK   54  A    between atoms: _130  and  _131
REMARK   55  A    between atoms: _141  and  _143
REMARK   56  A    between atoms: _143  and  _144
REMARK   57  A    between atoms: _143  and  _146
REMARK   58  A    between atoms: _146  and  _147
REMARK   59  A    between atoms: _147  and  _148
REMARK   60  A    between atoms: _150  and  _152
REMARK   61  A    between atoms: _152  and  _153
REMARK   62  A    between atoms: _152  and  _155
REMARK   63  A    between atoms: _155  and  _156
REMARK   64  A    between atoms: _159  and  _161
REMARK   65  A    between atoms: _161  and  _162
REMARK   66  A    between atoms: _161  and  _164
REMARK   67  A    between atoms: _164  and  _165
REMARK   68  A    between atoms: _168  and  _170
REMARK   69  A    between atoms: _170  and  _171
REMARK   70  A    between atoms: _170  and  _173
REMARK   71  A    between atoms: _173  and  _174
REMARK   72  A    between atoms: _184  and  _186
REMARK   73  A    between atoms: _186  and  _187
REMARK   74  A    between atoms: _186  and  _189
REMARK   75  A    between atoms: _189  and  _190
REMARK   76  A    between atoms: _193  and  _195
REMARK   77  A    between atoms: _195  and  _196
REMARK   78  A    between atoms: _195  and  _198
REMARK   79  A    between atoms: _198  and  _199
REMARK   80  A    between atoms: _199  and  _200
REMARK   81  A    between atoms: _203  and  _205
REMARK   82  A    between atoms: _205  and  _206
REMARK   83  A    between atoms: _208  and  _210
REMARK   84  A    between atoms: _210  and  _211
REMARK   85  A    between atoms: _210  and  _213
REMARK   86  A    between atoms: _213  and  _214
REMARK   87  A    between atoms: _224  and  _226
REMARK   88  A    between atoms: _226  and  _227
REMARK   89  A    between atoms: _226  and  _229
REMARK   90  A    between atoms: _229  and  _230
REMARK   91  A    between atoms: _240  and  _242
REMARK   92  A    between atoms: _242  and  _243
REMARK   93  A    between atoms: _242  and  _245
REMARK   94  A    between atoms: _245  and  _246
REMARK   95  A    between atoms: _252  and  _254
REMARK   96  A    between atoms: _254  and  _255
REMARK   97  A    between atoms: _254  and  _257
REMARK   98  A    between atoms: _257  and  _258
REMARK   99  A    between atoms: _264  and  _266
REMARK  100  A    between atoms: _266  and  _267
REMARK  101  A    between atoms: _266  and  _269
REMARK  102  A    between atoms: _269  and  _270
REMARK  103  A    between atoms: _275  and  _277
REMARK  104  A    between atoms: _277  and  _278
REMARK  105  A    between atoms: _277  and  _280
REMARK  106  A    between atoms: _280  and  _281
REMARK  107  A    between atoms: _286  and  _288
REMARK  108  A    between atoms: _288  and  _289
REMARK  109  A    between atoms: _288  and  _291
REMARK  110  A    between atoms: _291  and  _292
REMARK  111  A    between atoms: _292  and  _293
REMARK  112  A    between atoms: _296  and  _298
REMARK  113  A    between atoms: _298  and  _299
REMARK  114  A    between atoms: _298  and  _301
REMARK  115  A    between atoms: _301  and  _302
REMARK  116  A    between atoms: _305  and  _307
REMARK  117  A    between atoms: _307  and  _308
REMARK  118  A    between atoms: _307  and  _310
REMARK  119  A    between atoms: _310  and  _311
REMARK  120  A    between atoms: _313  and  _315
REMARK  121  A    between atoms: _315  and  _316
REMARK  122  A    between atoms: _315  and  _318
REMARK  123  A    between atoms: _318  and  _319
REMARK  124  A    between atoms: _319  and  _320
REMARK  125  A    between atoms: _320  and  _321
REMARK  126  A    between atoms: _321  and  _322
REMARK  127  A    between atoms: _326  and  _328
REMARK  128  A    between atoms: _328  and  _329
REMARK  129  A    between atoms: _328  and  _331
REMARK  130  A    between atoms: _331  and  _332
REMARK  131  A    between atoms: _334  and  _336
REMARK  132  A    between atoms: _336  and  _337
REMARK  133  A    between atoms: _339  and  _341
REMARK  134  A    between atoms: _341  and  _342
REMARK  135  A    between atoms: _341  and  _344
REMARK  136  A    between atoms: _344  and  _345
REMARK  137  A    between atoms: _350  and  _351
REMARK  138  A    between atoms: _353  and  _355
REMARK  139  A    between atoms: _355  and  _356
REMARK  140  A    between atoms: _355  and  _358
REMARK  141  A    between atoms: _361  and  _363
REMARK  142  A    between atoms: _363  and  _364
REMARK  143  A    between atoms: _366  and  _368
REMARK  144  A    between atoms: _368  and  _369
REMARK  145  A    between atoms: _368  and  _371
REMARK  146  A    between atoms: _371  and  _372
REMARK  147  A    between atoms: _377  and  _379
REMARK  148  A    between atoms: _379  and  _380
REMARK  149  A    between atoms: _383  and  _385
REMARK  150  A    between atoms: _385  and  _386
REMARK  151  A    between atoms: _385  and  _388
REMARK  152  A    between atoms: _388  and  _389
REMARK  153  A    between atoms: _394  and  _396
REMARK  154  A    between atoms: _396  and  _397
REMARK  155  A    between atoms: _396  and  _399
REMARK  156  A    between atoms: _399  and  _400
REMARK  157  A    between atoms: _400  and  _401
REMARK  158  A    between atoms: _401  and  _402
REMARK  159  A    between atoms: _402  and  CA_598
REMARK  160  A    between atoms: _404  and  _406
REMARK  161  A    between atoms: _406  and  _407
REMARK  162  A    between atoms: _406  and  _409
REMARK  163  A    between atoms: _409  and  _410
REMARK  164  A    between atoms: _410  and  _411
REMARK  165  A    between atoms: _414  and  _416
REMARK  166  A    between atoms: _416  and  _417
REMARK  167  A    between atoms: _416  and  _419
REMARK  168  A    between atoms: _419  and  _420
REMARK  169  A    between atoms: _422  and  _424
REMARK  170  A    between atoms: _424  and  _425
REMARK  171  A    between atoms: _428  and  _430
REMARK  172  A    between atoms: _430  and  _431
REMARK  173  A    between atoms: _430  and  _433
REMARK  174  A    between atoms: _433  and  _434
REMARK  175  A    between atoms: _434  and  _435
REMARK  176  A    between atoms: _435  and  _436
REMARK  177  A    between atoms: _445  and  _447
REMARK  178  A    between atoms: _447  and  _448
REMARK  179  A    between atoms: _450  and  _452
REMARK  180  A    between atoms: _452  and  _453
REMARK  181  A    between atoms: _452  and  _455
REMARK  182  A    between atoms: _455  and  _456
REMARK  183  A    between atoms: _459  and  _461
REMARK  184  A    between atoms: _461  and  _462
REMARK  185  A    between atoms: _461  and  _464
REMARK  186  A    between atoms: _464  and  _465
REMARK  187  A    between atoms: _465  and  _466
REMARK  188  A    between atoms: _469  and  _471
REMARK  189  A    between atoms: _471  and  _472
REMARK  190  A    between atoms: _471  and  _474
REMARK  191  A    between atoms: _474  and  _475
REMARK  192  A    between atoms: _480  and  _481
REMARK  193  A    between atoms: _483  and  _485
REMARK  194  A    between atoms: _485  and  _486
REMARK  195  A    between atoms: _485  and  _488
REMARK  196  A    between atoms: _488  and  _489
REMARK  197  A    between atoms: _489  and  _490
REMARK  198  A    between atoms: _493  and  _495
REMARK  199  A    between atoms: _495  and  _496
REMARK  200  A    between atoms: _495  and  _498
REMARK  201  A    between atoms: _498  and  _499
REMARK  202  A    between atoms: _501  and  _503
REMARK  203  A    between atoms: _503  and  _504
REMARK  204  A    between atoms: _503  and  _506
REMARK  205  A    between atoms: _506  and  _507
REMARK  206  A    between atoms: _513  and  _515
REMARK  207  A    between atoms: _515  and  _516
REMARK  208  A    between atoms: _518  and  _520
REMARK  209  A    between atoms: _520  and  _521
REMARK  210  A    between atoms: _523  and  _525
REMARK  211  A    between atoms: _525  and  _526
REMARK  212  A    between atoms: _525  and  _528
REMARK  213  A    between atoms: _528  and  _529
REMARK  214  A    between atoms: _532  and  _534
REMARK  215  A    between atoms: _534  and  _535
REMARK  216  A    between atoms: _534  and  _537
REMARK  217  A    between atoms: _537  and  _538
REMARK  218  A    between atoms: _541  and  _543
REMARK  219  A    between atoms: _543  and  _544
REMARK  220  A    between atoms: _547  and  _549
REMARK  221  A    between atoms: _549  and  _550
REMARK  222  A    between atoms: _549  and  _552
REMARK  223  A    between atoms: _552  and  _553
REMARK  224  A    between atoms: _558  and  _560
REMARK  225  A    between atoms: _560  and  _561
REMARK  226  A    between atoms: _560  and  _563
REMARK  227  A    between atoms: _563  and  _564
REMARK  228  A    between atoms: _569  and  _571
REMARK  229  A    between atoms: _571  and  _572
REMARK  230  A    between atoms: _571  and  _574
REMARK  231  A    between atoms: _574  and  _575
REMARK  232  A    between atoms: _577  and  _579
REMARK  233  A    between atoms: _579  and  _580
REMARK  234  A    between atoms: _579  and  _582
REMARK  235  A    between atoms: _582  and  _583
REMARK  236  A    between atoms: _583  and  _584
REMARK  237  A    between atoms: _589  and  _591
REMARK  238  A    between atoms: _591  and  _592
REMARK  239  A    between atoms: _591  and  _594
REMARK  240  A    between atoms: _594  and  _595
REMARK  241  A    between atoms: _595  and  _596
REMARK                            x       y       z     vdW  Elec       q    Type
REMARK                         _______ _______ _______ _____ _____    ______ ____
ROOT
ATOM      1  O   HOH     1      36.384  59.235  38.542  0.00  0.00    +0.000 OA
ENDROOT
TORSDOF 0
REMARK  Name = ../refined-set-2016/2zq0/2zq0_pocket.pdb
REMARK  241 active torsions:
REMARK  status: ('A' for Active; 'I' for Inactive)
REMARK    1  A    between atoms: _1  and  _3
REMARK    2  A    between atoms: _3  and  _4
REMARK    3  A    between atoms: _3  and  _6
REMARK    4  A    between atoms: _6  and  _7
REMARK    5  A    between atoms: _10  and  _12
REMARK    6  A    between atoms: _12  and  _13
REMARK    7  A    between atoms: _12  and  _15
REMARK    8  A    between atoms: _15  and  _16
REMARK    9  A    between atoms: _16  and  _17
REMARK   10  A    between atoms: _22  and  _24
REMARK   11  A    between atoms: _24  and  _25
REMARK   12  A    between atoms: _24  and  _27
REMARK   13  A    between atoms: _27  and  _28
REMARK   14  A    between atoms: _28  and  _29
REMARK   15  A    between atoms: _29  and  _31
REMARK   16  A    between atoms: _31  and  CA_598
REMARK   17  A    between atoms: _32  and  _34
REMARK   18  A    between atoms: _34  and  _35
REMARK   19  A    between atoms: _34  and  _37
REMARK   20  A    between atoms: _37  and  _38
REMARK   21  A    between atoms: _42  and  _43
REMARK   22  A    between atoms: _48  and  _50
REMARK   23  A    between atoms: _50  and  _51
REMARK   24  A    between atoms: _50  and  _53
REMARK   25  A    between atoms: _53  and  _54
REMARK   26  A    between atoms: _59  and  _61
REMARK   27  A    between atoms: _61  and  _62
REMARK   28  A    between atoms: _61  and  _64
REMARK   29  A    between atoms: _64  and  _65
REMARK   30  A    between atoms: _67  and  _69
REMARK   31  A    between atoms: _69  and  _70
REMARK   32  A    between atoms: _69  and  _72
REMARK   33  A    between atoms: _72  and  _73
REMARK   34  A    between atoms: _75  and  _77
REMARK   35  A    between atoms: _77  and  _78
REMARK   36  A    between atoms: _77  and  _80
REMARK   37  A    between atoms: _80  and  _81
REMARK   38  A    between atoms: _81  and  _82
REMARK   39  A    between atoms: _87  and  _89
REMARK   40  A    between atoms: _89  and  _90
REMARK   41  A    between atoms: _89  and  _92
REMARK   42  A    between atoms: _92  and  _93
REMARK   43  A    between atoms: _98  and  _99
REMARK   44  A    between atoms: _101  and  _103
REMARK   45  A    between atoms: _103  and  _104
REMARK   46  A    between atoms: _103  and  _106
REMARK   47  A    between atoms: _109  and  _111
REMARK   48  A    between atoms: _111  and  _112
REMARK   49  A    between atoms: _111  and  _114
REMARK   50  A    between atoms: _114  and  _115
REMARK   51  A    between atoms: _125  and  _127
REMARK   52  A    between atoms: _127  and  _128
REMARK   53  A    between atoms: _127  and  _130
REMARK   54  A    between atoms: _130  and  _131
REMARK   55  A    between atoms: _141  and  _143
REMARK   56  A    between atoms: _143  and  _144
REMARK   57  A    between atoms: _143  and  _146
REMARK   58  A    between atoms: _146  and  _147
REMARK   59  A    between atoms: _147  and  _148
REMARK   60  A    between atoms: _150  and  _152
REMARK   61  A    between atoms: _152  and  _153
REMARK   62  A    between atoms: _152  and  _155
REMARK   63  A    between atoms: _155  and  _156
REMARK   64  A    between atoms: _159  and  _161
REMARK   65  A    between atoms: _161  and  _162
REMARK   66  A    between atoms: _161  and  _164
REMARK   67  A    between atoms: _164  and  _165
REMARK   68  A    between atoms: _168  and  _170
REMARK   69  A    between atoms: _170  and  _171
REMARK   70  A    between atoms: _170  and  _173
REMARK   71  A    between atoms: _173  and  _174
REMARK   72  A    between atoms: _184  and  _186
REMARK   73  A    between atoms: _186  and  _187
REMARK   74  A    between atoms: _186  and  _189
REMARK   75  A    between atoms: _189  and  _190
REMARK   76  A    between atoms: _193  and  _195
REMARK   77  A    between atoms: _195  and  _196
REMARK   78  A    between atoms: _195  and  _198
REMARK   79  A    between atoms: _198  and  _199
REMARK   80  A    between atoms: _199  and  _200
REMARK   81  A    between atoms: _203  and  _205
REMARK   82  A    between atoms: _205  and  _206
REMARK   83  A    between atoms: _208  and  _210
REMARK   84  A    between atoms: _210  and  _211
REMARK   85  A    between atoms: _210  and  _213
REMARK   86  A    between atoms: _213  and  _214
REMARK   87  A    between atoms: _224  and  _226
REMARK   88  A    between atoms: _226  and  _227
REMARK   89  A    between atoms: _226  and  _229
REMARK   90  A    between atoms: _229  and  _230
REMARK   91  A    between atoms: _240  and  _242
REMARK   92  A    between atoms: _242  and  _243
REMARK   93  A    between atoms: _242  and  _245
REMARK   94  A    between atoms: _245  and  _246
REMARK   95  A    between atoms: _252  and  _254
REMARK   96  A    between atoms: _254  and  _255
REMARK   97  A    between atoms: _254  and  _257
REMARK   98  A    between atoms: _257  and  _258
REMARK   99  A    between atoms: _264  and  _266
REMARK  100  A    between atoms: _266  and  _267
REMARK  101  A    between atoms: _266  and  _269
REMARK  102  A    between atoms: _269  and  _270
REMARK  103  A    between atoms: _275  and  _277
REMARK  104  A    between atoms: _277  and  _278
REMARK  105  A    between atoms: _277  and  _280
REMARK  106  A    between atoms: _280  and  _281
REMARK  107  A    between atoms: _286  and  _288
REMARK  108  A    between atoms: _288  and  _289
REMARK  109  A    between atoms: _288  and  _291
REMARK  110  A    between atoms: _291  and  _292
REMARK  111  A    between atoms: _292  and  _293
REMARK  112  A    between atoms: _296  and  _298
REMARK  113  A    between atoms: _298  and  _299
REMARK  114  A    between atoms: _298  and  _301
REMARK  115  A    between atoms: _301  and  _302
REMARK  116  A    between atoms: _305  and  _307
REMARK  117  A    between atoms: _307  and  _308
REMARK  118  A    between atoms: _307  and  _310
REMARK  119  A    between atoms: _310  and  _311
REMARK  120  A    between atoms: _313  and  _315
REMARK  121  A    between atoms: _315  and  _316
REMARK  122  A    between atoms: _315  and  _318
REMARK  123  A    between atoms: _318  and  _319
REMARK  124  A    between atoms: _319  and  _320
REMARK  125  A    between atoms: _320  and  _321
REMARK  126  A    between atoms: _321  and  _322
REMARK  127  A    between atoms: _326  and  _328
REMARK  128  A    between atoms: _328  and  _329
REMARK  129  A    between atoms: _328  and  _331
REMARK  130  A    between atoms: _331  and  _332
REMARK  131  A    between atoms: _334  and  _336
REMARK  132  A    between atoms: _336  and  _337
REMARK  133  A    between atoms: _339  and  _341
REMARK  134  A    between atoms: _341  and  _342
REMARK  135  A    between atoms: _341  and  _344
REMARK  136  A    between atoms: _344  and  _345
REMARK  137  A    between atoms: _350  and  _351
REMARK  138  A    between atoms: _353  and  _355
REMARK  139  A    between atoms: _355  and  _356
REMARK  140  A    between atoms: _355  and  _358
REMARK  141  A    between atoms: _361  and  _363
REMARK  142  A    between atoms: _363  and  _364
REMARK  143  A    between atoms: _366  and  _368
REMARK  144  A    between atoms: _368  and  _369
REMARK  145  A    between atoms: _368  and  _371
REMARK  146  A    between atoms: _371  and  _372
REMARK  147  A    between atoms: _377  and  _379
REMARK  148  A    between atoms: _379  and  _380
REMARK  149  A    between atoms: _383  and  _385
REMARK  150  A    between atoms: _385  and  _386
REMARK  151  A    between atoms: _385  and  _388
REMARK  152  A    between atoms: _388  and  _389
REMARK  153  A    between atoms: _394  and  _396
REMARK  154  A    between atoms: _396  and  _397
REMARK  155  A    between atoms: _396  and  _399
REMARK  156  A    between atoms: _399  and  _400
REMARK  157  A    between atoms: _400  and  _401
REMARK  158  A    between atoms: _401  and  _402
REMARK  159  A    between atoms: _402  and  CA_598
REMARK  160  A    between atoms: _404  and  _406
REMARK  161  A    between atoms: _406  and  _407
REMARK  162  A    between atoms: _406  and  _409
REMARK  163  A    between atoms: _409  and  _410
REMARK  164  A    between atoms: _410  and  _411
REMARK  165  A    between atoms: _414  and  _416
REMARK  166  A    between atoms: _416  and  _417
REMARK  167  A    between atoms: _416  and  _419
REMARK  168  A    between atoms: _419  and  _420
REMARK  169  A    between atoms: _422  and  _424
REMARK  170  A    between atoms: _424  and  _425
REMARK  171  A    between atoms: _428  and  _430
REMARK  172  A    between atoms: _430  and  _431
REMARK  173  A    between atoms: _430  and  _433
REMARK  174  A    between atoms: _433  and  _434
REMARK  175  A    between atoms: _434  and  _435
REMARK  176  A    between atoms: _435  and  _436
REMARK  177  A    between atoms: _445  and  _447
REMARK  178  A    between atoms: _447  and  _448
REMARK  179  A    between atoms: _450  and  _452
REMARK  180  A    between atoms: _452  and  _453
REMARK  181  A    between atoms: _452  and  _455
REMARK  182  A    between atoms: _455  and  _456
REMARK  183  A    between atoms: _459  and  _461
REMARK  184  A    between atoms: _461  and  _462
REMARK  185  A    between atoms: _461  and  _464
REMARK  186  A    between atoms: _464  and  _465
REMARK  187  A    between atoms: _465  and  _466
REMARK  188  A    between atoms: _469  and  _471
REMARK  189  A    between atoms: _471  and  _472
REMARK  190  A    between atoms: _471  and  _474
REMARK  191  A    between atoms: _474  and  _475
REMARK  192  A    between atoms: _480  and  _481
REMARK  193  A    between atoms: _483  and  _485
REMARK  194  A    between atoms: _485  and  _486
REMARK  195  A    between atoms: _485  and  _488
REMARK  196  A    between atoms: _488  and  _489
REMARK  197  A    between atoms: _489  and  _490
REMARK  198  A    between atoms: _493  and  _495
REMARK  199  A    between atoms: _495  and  _496
REMARK  200  A    between atoms: _495  and  _498
REMARK  201  A    between atoms: _498  and  _499
REMARK  202  A    between atoms: _501  and  _503
REMARK  203  A    between atoms: _503  and  _504
REMARK  204  A    between atoms: _503  and  _506
REMARK  205  A    between atoms: _506  and  _507
REMARK  206  A    between atoms: _513  and  _515
REMARK  207  A    between atoms: _515  and  _516
REMARK  208  A    between atoms: _518  and  _520
REMARK  209  A    between atoms: _520  and  _521
REMARK  210  A    between atoms: _523  and  _525
REMARK  211  A    between atoms: _525  and  _526
REMARK  212  A    between atoms: _525  and  _528
REMARK  213  A    between atoms: _528  and  _529
REMARK  214  A    between atoms: _532  and  _534
REMARK  215  A    between atoms: _534  and  _535
REMARK  216  A    between atoms: _534  and  _537
REMARK  217  A    between atoms: _537  and  _538
REMARK  218  A    between atoms: _541  and  _543
REMARK  219  A    between atoms: _543  and  _544
REMARK  220  A    between atoms: _547  and  _549
REMARK  221  A    between atoms: _549  and  _550
REMARK  222  A    between atoms: _549  and  _552
REMARK  223  A    between atoms: _552  and  _553
REMARK  224  A    between atoms: _558  and  _560
REMARK  225  A    between atoms: _560  and  _561
REMARK  226  A    between atoms: _560  and  _563
REMARK  227  A    between atoms: _563  and  _564
REMARK  228  A    between atoms: _569  and  _571
REMARK  229  A    between atoms: _571  and  _572
REMARK  230  A    between atoms: _571  and  _574
REMARK  231  A    between atoms: _574  and  _575
REMARK  232  A    between atoms: _577  and  _579
REMARK  233  A    between atoms: _579  and  _580
REMARK  234  A    between atoms: _579  and  _582
REMARK  235  A    between atoms: _582  and  _583
REMARK  236  A    between atoms: _583  and  _584
REMARK  237  A    between atoms: _589  and  _591
REMARK  238  A    between atoms: _591  and  _592
REMARK  239  A    between atoms: _591  and  _594
REMARK  240  A    between atoms: _594  and  _595
REMARK  241  A    between atoms: _595  and  _596
REMARK                            x       y       z     vdW  Elec       q    Type
REMARK                         _______ _______ _______ _____ _____    ______ ____
ROOT
ATOM      1  O   HOH     1      26.826  64.144  28.369  0.00  0.00    +0.000 OA
ENDROOT
TORSDOF 0
REMARK  Name = ../refined-set-2016/2zq0/2zq0_pocket.pdb
REMARK  241 active torsions:
REMARK  status: ('A' for Active; 'I' for Inactive)
REMARK    1  A    between atoms: _1  and  _3
REMARK    2  A    between atoms: _3  and  _4
REMARK    3  A    between atoms: _3  and  _6
REMARK    4  A    between atoms: _6  and  _7
REMARK    5  A    between atoms: _10  and  _12
REMARK    6  A    between atoms: _12  and  _13
REMARK    7  A    between atoms: _12  and  _15
REMARK    8  A    between atoms: _15  and  _16
REMARK    9  A    between atoms: _16  and  _17
REMARK   10  A    between atoms: _22  and  _24
REMARK   11  A    between atoms: _24  and  _25
REMARK   12  A    between atoms: _24  and  _27
REMARK   13  A    between atoms: _27  and  _28
REMARK   14  A    between atoms: _28  and  _29
REMARK   15  A    between atoms: _29  and  _31
REMARK   16  A    between atoms: _31  and  CA_598
REMARK   17  A    between atoms: _32  and  _34
REMARK   18  A    between atoms: _34  and  _35
REMARK   19  A    between atoms: _34  and  _37
REMARK   20  A    between atoms: _37  and  _38
REMARK   21  A    between atoms: _42  and  _43
REMARK   22  A    between atoms: _48  and  _50
REMARK   23  A    between atoms: _50  and  _51
REMARK   24  A    between atoms: _50  and  _53
REMARK   25  A    between atoms: _53  and  _54
REMARK   26  A    between atoms: _59  and  _61
REMARK   27  A    between atoms: _61  and  _62
REMARK   28  A    between atoms: _61  and  _64
REMARK   29  A    between atoms: _64  and  _65
REMARK   30  A    between atoms: _67  and  _69
REMARK   31  A    between atoms: _69  and  _70
REMARK   32  A    between atoms: _69  and  _72
REMARK   33  A    between atoms: _72  and  _73
REMARK   34  A    between atoms: _75  and  _77
REMARK   35  A    between atoms: _77  and  _78
REMARK   36  A    between atoms: _77  and  _80
REMARK   37  A    between atoms: _80  and  _81
REMARK   38  A    between atoms: _81  and  _82
REMARK   39  A    between atoms: _87  and  _89
REMARK   40  A    between atoms: _89  and  _90
REMARK   41  A    between atoms: _89  and  _92
REMARK   42  A    between atoms: _92  and  _93
REMARK   43  A    between atoms: _98  and  _99
REMARK   44  A    between atoms: _101  and  _103
REMARK   45  A    between atoms: _103  and  _104
REMARK   46  A    between atoms: _103  and  _106
REMARK   47  A    between atoms: _109  and  _111
REMARK   48  A    between atoms: _111  and  _112
REMARK   49  A    between atoms: _111  and  _114
REMARK   50  A    between atoms: _114  and  _115
REMARK   51  A    between atoms: _125  and  _127
REMARK   52  A    between atoms: _127  and  _128
REMARK   53  A    between atoms: _127  and  _130
REMARK   54  A    between atoms: _130  and  _131
REMARK   55  A    between atoms: _141  and  _143
REMARK   56  A    between atoms: _143  and  _144
REMARK   57  A    between atoms: _143  and  _146
REMARK   58  A    between atoms: _146  and  _147
REMARK   59  A    between atoms: _147  and  _148
REMARK   60  A    between atoms: _150  and  _152
REMARK   61  A    between atoms: _152  and  _153
REMARK   62  A    between atoms: _152  and  _155
REMARK   63  A    between atoms: _155  and  _156
REMARK   64  A    between atoms: _159  and  _161
REMARK   65  A    between atoms: _161  and  _162
REMARK   66  A    between atoms: _161  and  _164
REMARK   67  A    between atoms: _164  and  _165
REMARK   68  A    between atoms: _168  and  _170
REMARK   69  A    between atoms: _170  and  _171
REMARK   70  A    between atoms: _170  and  _173
REMARK   71  A    between atoms: _173  and  _174
REMARK   72  A    between atoms: _184  and  _186
REMARK   73  A    between atoms: _186  and  _187
REMARK   74  A    between atoms: _186  and  _189
REMARK   75  A    between atoms: _189  and  _190
REMARK   76  A    between atoms: _193  and  _195
REMARK   77  A    between atoms: _195  and  _196
REMARK   78  A    between atoms: _195  and  _198
REMARK   79  A    between atoms: _198  and  _199
REMARK   80  A    between atoms: _199  and  _200
REMARK   81  A    between atoms: _203  and  _205
REMARK   82  A    between atoms: _205  and  _206
REMARK   83  A    between atoms: _208  and  _210
REMARK   84  A    between atoms: _210  and  _211
REMARK   85  A    between atoms: _210  and  _213
REMARK   86  A    between atoms: _213  and  _214
REMARK   87  A    between atoms: _224  and  _226
REMARK   88  A    between atoms: _226  and  _227
REMARK   89  A    between atoms: _226  and  _229
REMARK   90  A    between atoms: _229  and  _230
REMARK   91  A    between atoms: _240  and  _242
REMARK   92  A    between atoms: _242  and  _243
REMARK   93  A    between atoms: _242  and  _245
REMARK   94  A    between atoms: _245  and  _246
REMARK   95  A    between atoms: _252  and  _254
REMARK   96  A    between atoms: _254  and  _255
REMARK   97  A    between atoms: _254  and  _257
REMARK   98  A    between atoms: _257  and  _258
REMARK   99  A    between atoms: _264  and  _266
REMARK  100  A    between atoms: _266  and  _267
REMARK  101  A    between atoms: _266  and  _269
REMARK  102  A    between atoms: _269  and  _270
REMARK  103  A    between atoms: _275  and  _277
REMARK  104  A    between atoms: _277  and  _278
REMARK  105  A    between atoms: _277  and  _280
REMARK  106  A    between atoms: _280  and  _281
REMARK  107  A    between atoms: _286  and  _288
REMARK  108  A    between atoms: _288  and  _289
REMARK  109  A    between atoms: _288  and  _291
REMARK  110  A    between atoms: _291  and  _292
REMARK  111  A    between atoms: _292  and  _293
REMARK  112  A    between atoms: _296  and  _298
REMARK  113  A    between atoms: _298  and  _299
REMARK  114  A    between atoms: _298  and  _301
REMARK  115  A    between atoms: _301  and  _302
REMARK  116  A    between atoms: _305  and  _307
REMARK  117  A    between atoms: _307  and  _308
REMARK  118  A    between atoms: _307  and  _310
REMARK  119  A    between atoms: _310  and  _311
REMARK  120  A    between atoms: _313  and  _315
REMARK  121  A    between atoms: _315  and  _316
REMARK  122  A    between atoms: _315  and  _318
REMARK  123  A    between atoms: _318  and  _319
REMARK  124  A    between atoms: _319  and  _320
REMARK  125  A    between atoms: _320  and  _321
REMARK  126  A    between atoms: _321  and  _322
REMARK  127  A    between atoms: _326  and  _328
REMARK  128  A    between atoms: _328  and  _329
REMARK  129  A    between atoms: _328  and  _331
REMARK  130  A    between atoms: _331  and  _332
REMARK  131  A    between atoms: _334  and  _336
REMARK  132  A    between atoms: _336  and  _337
REMARK  133  A    between atoms: _339  and  _341
REMARK  134  A    between atoms: _341  and  _342
REMARK  135  A    between atoms: _341  and  _344
REMARK  136  A    between atoms: _344  and  _345
REMARK  137  A    between atoms: _350  and  _351
REMARK  138  A    between atoms: _353  and  _355
REMARK  139  A    between atoms: _355  and  _356
REMARK  140  A    between atoms: _355  and  _358
REMARK  141  A    between atoms: _361  and  _363
REMARK  142  A    between atoms: _363  and  _364
REMARK  143  A    between atoms: _366  and  _368
REMARK  144  A    between atoms: _368  and  _369
REMARK  145  A    between atoms: _368  and  _371
REMARK  146  A    between atoms: _371  and  _372
REMARK  147  A    between atoms: _377  and  _379
REMARK  148  A    between atoms: _379  and  _380
REMARK  149  A    between atoms: _383  and  _385
REMARK  150  A    between atoms: _385  and  _386
REMARK  151  A    between atoms: _385  and  _388
REMARK  152  A    between atoms: _388  and  _389
REMARK  153  A    between atoms: _394  and  _396
REMARK  154  A    between atoms: _396  and  _397
REMARK  155  A    between atoms: _396  and  _399
REMARK  156  A    between atoms: _399  and  _400
REMARK  157  A    between atoms: _400  and  _401
REMARK  158  A    between atoms: _401  and  _402
REMARK  159  A    between atoms: _402  and  CA_598
REMARK  160  A    between atoms: _404  and  _406
REMARK  161  A    between atoms: _406  and  _407
REMARK  162  A    between atoms: _406  and  _409
REMARK  163  A    between atoms: _409  and  _410
REMARK  164  A    between atoms: _410  and  _411
REMARK  165  A    between atoms: _414  and  _416
REMARK  166  A    between atoms: _416  and  _417
REMARK  167  A    between atoms: _416  and  _419
REMARK  168  A    between atoms: _419  and  _420
REMARK  169  A    between atoms: _422  and  _424
REMARK  170  A    between atoms: _424  and  _425
REMARK  171  A    between atoms: _428  and  _430
REMARK  172  A    between atoms: _430  and  _431
REMARK  173  A    between atoms: _430  and  _433
REMARK  174  A    between atoms: _433  and  _434
REMARK  175  A    between atoms: _434  and  _435
REMARK  176  A    between atoms: _435  and  _436
REMARK  177  A    between atoms: _445  and  _447
REMARK  178  A    between atoms: _447  and  _448
REMARK  179  A    between atoms: _450  and  _452
REMARK  180  A    between atoms: _452  and  _453
REMARK  181  A    between atoms: _452  and  _455
REMARK  182  A    between atoms: _455  and  _456
REMARK  183  A    between atoms: _459  and  _461
REMARK  184  A    between atoms: _461  and  _462
REMARK  185  A    between atoms: _461  and  _464
REMARK  186  A    between atoms: _464  and  _465
REMARK  187  A    between atoms: _465  and  _466
REMARK  188  A    between atoms: _469  and  _471
REMARK  189  A    between atoms: _471  and  _472
REMARK  190  A    between atoms: _471  and  _474
REMARK  191  A    between atoms: _474  and  _475
REMARK  192  A    between atoms: _480  and  _481
REMARK  193  A    between atoms: _483  and  _485
REMARK  194  A    between atoms: _485  and  _486
REMARK  195  A    between atoms: _485  and  _488
REMARK  196  A    between atoms: _488  and  _489
REMARK  197  A    between atoms: _489  and  _490
REMARK  198  A    between atoms: _493  and  _495
REMARK  199  A    between atoms: _495  and  _496
REMARK  200  A    between atoms: _495  and  _498
REMARK  201  A    between atoms: _498  and  _499
REMARK  202  A    between atoms: _501  and  _503
REMARK  203  A    between atoms: _503  and  _504
REMARK  204  A    between atoms: _503  and  _506
REMARK  205  A    between atoms: _506  and  _507
REMARK  206  A    between atoms: _513  and  _515
REMARK  207  A    between atoms: _515  and  _516
REMARK  208  A    between atoms: _518  and  _520
REMARK  209  A    between atoms: _520  and  _521
REMARK  210  A    between atoms: _523  and  _525
REMARK  211  A    between atoms: _525  and  _526
REMARK  212  A    between atoms: _525  and  _528
REMARK  213  A    between atoms: _528  and  _529
REMARK  214  A    between atoms: _532  and  _534
REMARK  215  A    between atoms: _534  and  _535
REMARK  216  A    between atoms: _534  and  _537
REMARK  217  A    between atoms: _537  and  _538
REMARK  218  A    between atoms: _541  and  _543
REMARK  219  A    between atoms: _543  and  _544
REMARK  220  A    between atoms: _547  and  _549
REMARK  221  A    between atoms: _549  and  _550
REMARK  222  A    between atoms: _549  and  _552
REMARK  223  A    between atoms: _552  and  _553
REMARK  224  A    between atoms: _558  and  _560
REMARK  225  A    between atoms: _560  and  _561
REMARK  226  A    between atoms: _560  and  _563
REMARK  227  A    between atoms: _563  and  _564
REMARK  228  A    between atoms: _569  and  _571
REMARK  229  A    between atoms: _571  and  _572
REMARK  230  A    between atoms: _571  and  _574
REMARK  231  A    between atoms: _574  and  _575
REMARK  232  A    between atoms: _577  and  _579
REMARK  233  A    between atoms: _579  and  _580
REMARK  234  A    between atoms: _579  and  _582
REMARK  235  A    between atoms: _582  and  _583
REMARK  236  A    between atoms: _583  and  _584
REMARK  237  A    between atoms: _589  and  _591
REMARK  238  A    between atoms: _591  and  _592
REMARK  239  A    between atoms: _591  and  _594
REMARK  240  A    between atoms: _594  and  _595
REMARK  241  A    between atoms: _595  and  _596
REMARK                            x       y       z     vdW  Elec       q    Type
REMARK                         _______ _______ _______ _____ _____    ______ ____
ROOT
ATOM      1  O   HOH     1      31.154  59.915  44.188  0.00  0.00    +0.000 OA
ENDROOT
TORSDOF 0
REMARK  Name = ../refined-set-2016/2zq0/2zq0_pocket.pdb
REMARK  241 active torsions:
REMARK  status: ('A' for Active; 'I' for Inactive)
REMARK    1  A    between atoms: _1  and  _3
REMARK    2  A    between atoms: _3  and  _4
REMARK    3  A    between atoms: _3  and  _6
REMARK    4  A    between atoms: _6  and  _7
REMARK    5  A    between atoms: _10  and  _12
REMARK    6  A    between atoms: _12  and  _13
REMARK    7  A    between atoms: _12  and  _15
REMARK    8  A    between atoms: _15  and  _16
REMARK    9  A    between atoms: _16  and  _17
REMARK   10  A    between atoms: _22  and  _24
REMARK   11  A    between atoms: _24  and  _25
REMARK   12  A    between atoms: _24  and  _27
REMARK   13  A    between atoms: _27  and  _28
REMARK   14  A    between atoms: _28  and  _29
REMARK   15  A    between atoms: _29  and  _31
REMARK   16  A    between atoms: _31  and  CA_598
REMARK   17  A    between atoms: _32  and  _34
REMARK   18  A    between atoms: _34  and  _35
REMARK   19  A    between atoms: _34  and  _37
REMARK   20  A    between atoms: _37  and  _38
REMARK   21  A    between atoms: _42  and  _43
REMARK   22  A    between atoms: _48  and  _50
REMARK   23  A    between atoms: _50  and  _51
REMARK   24  A    between atoms: _50  and  _53
REMARK   25  A    between atoms: _53  and  _54
REMARK   26  A    between atoms: _59  and  _61
REMARK   27  A    between atoms: _61  and  _62
REMARK   28  A    between atoms: _61  and  _64
REMARK   29  A    between atoms: _64  and  _65
REMARK   30  A    between atoms: _67  and  _69
REMARK   31  A    between atoms: _69  and  _70
REMARK   32  A    between atoms: _69  and  _72
REMARK   33  A    between atoms: _72  and  _73
REMARK   34  A    between atoms: _75  and  _77
REMARK   35  A    between atoms: _77  and  _78
REMARK   36  A    between atoms: _77  and  _80
REMARK   37  A    between atoms: _80  and  _81
REMARK   38  A    between atoms: _81  and  _82
REMARK   39  A    between atoms: _87  and  _89
REMARK   40  A    between atoms: _89  and  _90
REMARK   41  A    between atoms: _89  and  _92
REMARK   42  A    between atoms: _92  and  _93
REMARK   43  A    between atoms: _98  and  _99
REMARK   44  A    between atoms: _101  and  _103
REMARK   45  A    between atoms: _103  and  _104
REMARK   46  A    between atoms: _103  and  _106
REMARK   47  A    between atoms: _109  and  _111
REMARK   48  A    between atoms: _111  and  _112
REMARK   49  A    between atoms: _111  and  _114
REMARK   50  A    between atoms: _114  and  _115
REMARK   51  A    between atoms: _125  and  _127
REMARK   52  A    between atoms: _127  and  _128
REMARK   53  A    between atoms: _127  and  _130
REMARK   54  A    between atoms: _130  and  _131
REMARK   55  A    between atoms: _141  and  _143
REMARK   56  A    between atoms: _143  and  _144
REMARK   57  A    between atoms: _143  and  _146
REMARK   58  A    between atoms: _146  and  _147
REMARK   59  A    between atoms: _147  and  _148
REMARK   60  A    between atoms: _150  and  _152
REMARK   61  A    between atoms: _152  and  _153
REMARK   62  A    between atoms: _152  and  _155
REMARK   63  A    between atoms: _155  and  _156
REMARK   64  A    between atoms: _159  and  _161
REMARK   65  A    between atoms: _161  and  _162
REMARK   66  A    between atoms: _161  and  _164
REMARK   67  A    between atoms: _164  and  _165
REMARK   68  A    between atoms: _168  and  _170
REMARK   69  A    between atoms: _170  and  _171
REMARK   70  A    between atoms: _170  and  _173
REMARK   71  A    between atoms: _173  and  _174
REMARK   72  A    between atoms: _184  and  _186
REMARK   73  A    between atoms: _186  and  _187
REMARK   74  A    between atoms: _186  and  _189
REMARK   75  A    between atoms: _189  and  _190
REMARK   76  A    between atoms: _193  and  _195
REMARK   77  A    between atoms: _195  and  _196
REMARK   78  A    between atoms: _195  and  _198
REMARK   79  A    between atoms: _198  and  _199
REMARK   80  A    between atoms: _199  and  _200
REMARK   81  A    between atoms: _203  and  _205
REMARK   82  A    between atoms: _205  and  _206
REMARK   83  A    between atoms: _208  and  _210
REMARK   84  A    between atoms: _210  and  _211
REMARK   85  A    between atoms: _210  and  _213
REMARK   86  A    between atoms: _213  and  _214
REMARK   87  A    between atoms: _224  and  _226
REMARK   88  A    between atoms: _226  and  _227
REMARK   89  A    between atoms: _226  and  _229
REMARK   90  A    between atoms: _229  and  _230
REMARK   91  A    between atoms: _240  and  _242
REMARK   92  A    between atoms: _242  and  _243
REMARK   93  A    between atoms: _242  and  _245
REMARK   94  A    between atoms: _245  and  _246
REMARK   95  A    between atoms: _252  and  _254
REMARK   96  A    between atoms: _254  and  _255
REMARK   97  A    between atoms: _254  and  _257
REMARK   98  A    between atoms: _257  and  _258
REMARK   99  A    between atoms: _264  and  _266
REMARK  100  A    between atoms: _266  and  _267
REMARK  101  A    between atoms: _266  and  _269
REMARK  102  A    between atoms: _269  and  _270
REMARK  103  A    between atoms: _275  and  _277
REMARK  104  A    between atoms: _277  and  _278
REMARK  105  A    between atoms: _277  and  _280
REMARK  106  A    between atoms: _280  and  _281
REMARK  107  A    between atoms: _286  and  _288
REMARK  108  A    between atoms: _288  and  _289
REMARK  109  A    between atoms: _288  and  _291
REMARK  110  A    between atoms: _291  and  _292
REMARK  111  A    between atoms: _292  and  _293
REMARK  112  A    between atoms: _296  and  _298
REMARK  113  A    between atoms: _298  and  _299
REMARK  114  A    between atoms: _298  and  _301
REMARK  115  A    between atoms: _301  and  _302
REMARK  116  A    between atoms: _305  and  _307
REMARK  117  A    between atoms: _307  and  _308
REMARK  118  A    between atoms: _307  and  _310
REMARK  119  A    between atoms: _310  and  _311
REMARK  120  A    between atoms: _313  and  _315
REMARK  121  A    between atoms: _315  and  _316
REMARK  122  A    between atoms: _315  and  _318
REMARK  123  A    between atoms: _318  and  _319
REMARK  124  A    between atoms: _319  and  _320
REMARK  125  A    between atoms: _320  and  _321
REMARK  126  A    between atoms: _321  and  _322
REMARK  127  A    between atoms: _326  and  _328
REMARK  128  A    between atoms: _328  and  _329
REMARK  129  A    between atoms: _328  and  _331
REMARK  130  A    between atoms: _331  and  _332
REMARK  131  A    between atoms: _334  and  _336
REMARK  132  A    between atoms: _336  and  _337
REMARK  133  A    between atoms: _339  and  _341
REMARK  134  A    between atoms: _341  and  _342
REMARK  135  A    between atoms: _341  and  _344
REMARK  136  A    between atoms: _344  and  _345
REMARK  137  A    between atoms: _350  and  _351
REMARK  138  A    between atoms: _353  and  _355
REMARK  139  A    between atoms: _355  and  _356
REMARK  140  A    between atoms: _355  and  _358
REMARK  141  A    between atoms: _361  and  _363
REMARK  142  A    between atoms: _363  and  _364
REMARK  143  A    between atoms: _366  and  _368
REMARK  144  A    between atoms: _368  and  _369
REMARK  145  A    between atoms: _368  and  _371
REMARK  146  A    between atoms: _371  and  _372
REMARK  147  A    between atoms: _377  and  _379
REMARK  148  A    between atoms: _379  and  _380
REMARK  149  A    between atoms: _383  and  _385
REMARK  150  A    between atoms: _385  and  _386
REMARK  151  A    between atoms: _385  and  _388
REMARK  152  A    between atoms: _388  and  _389
REMARK  153  A    between atoms: _394  and  _396
REMARK  154  A    between atoms: _396  and  _397
REMARK  155  A    between atoms: _396  and  _399
REMARK  156  A    between atoms: _399  and  _400
REMARK  157  A    between atoms: _400  and  _401
REMARK  158  A    between atoms: _401  and  _402
REMARK  159  A    between atoms: _402  and  CA_598
REMARK  160  A    between atoms: _404  and  _406
REMARK  161  A    between atoms: _406  and  _407
REMARK  162  A    between atoms: _406  and  _409
REMARK  163  A    between atoms: _409  and  _410
REMARK  164  A    between atoms: _410  and  _411
REMARK  165  A    between atoms: _414  and  _416
REMARK  166  A    between atoms: _416  and  _417
REMARK  167  A    between atoms: _416  and  _419
REMARK  168  A    between atoms: _419  and  _420
REMARK  169  A    between atoms: _422  and  _424
REMARK  170  A    between atoms: _424  and  _425
REMARK  171  A    between atoms: _428  and  _430
REMARK  172  A    between atoms: _430  and  _431
REMARK  173  A    between atoms: _430  and  _433
REMARK  174  A    between atoms: _433  and  _434
REMARK  175  A    between atoms: _434  and  _435
REMARK  176  A    between atoms: _435  and  _436
REMARK  177  A    between atoms: _445  and  _447
REMARK  178  A    between atoms: _447  and  _448
REMARK  179  A    between atoms: _450  and  _452
REMARK  180  A    between atoms: _452  and  _453
REMARK  181  A    between atoms: _452  and  _455
REMARK  182  A    between atoms: _455  and  _456
REMARK  183  A    between atoms: _459  and  _461
REMARK  184  A    between atoms: _461  and  _462
REMARK  185  A    between atoms: _461  and  _464
REMARK  186  A    between atoms: _464  and  _465
REMARK  187  A    between atoms: _465  and  _466
REMARK  188  A    between atoms: _469  and  _471
REMARK  189  A    between atoms: _471  and  _472
REMARK  190  A    between atoms: _471  and  _474
REMARK  191  A    between atoms: _474  and  _475
REMARK  192  A    between atoms: _480  and  _481
REMARK  193  A    between atoms: _483  and  _485
REMARK  194  A    between atoms: _485  and  _486
REMARK  195  A    between atoms: _485  and  _488
REMARK  196  A    between atoms: _488  and  _489
REMARK  197  A    between atoms: _489  and  _490
REMARK  198  A    between atoms: _493  and  _495
REMARK  199  A    between atoms: _495  and  _496
REMARK  200  A    between atoms: _495  and  _498
REMARK  201  A    between atoms: _498  and  _499
REMARK  202  A    between atoms: _501  and  _503
REMARK  203  A    between atoms: _503  and  _504
REMARK  204  A    between atoms: _503  and  _506
REMARK  205  A    between atoms: _506  and  _507
REMARK  206  A    between atoms: _513  and  _515
REMARK  207  A    between atoms: _515  and  _516
REMARK  208  A    between atoms: _518  and  _520
REMARK  209  A    between atoms: _520  and  _521
REMARK  210  A    between atoms: _523  and  _525
REMARK  211  A    between atoms: _525  and  _526
REMARK  212  A    between atoms: _525  and  _528
REMARK  213  A    between atoms: _528  and  _529
REMARK  214  A    between atoms: _532  and  _534
REMARK  215  A    between atoms: _534  and  _535
REMARK  216  A    between atoms: _534  and  _537
REMARK  217  A    between atoms: _537  and  _538
REMARK  218  A    between atoms: _541  and  _543
REMARK  219  A    between atoms: _543  and  _544
REMARK  220  A    between atoms: _547  and  _549
REMARK  221  A    between atoms: _549  and  _550
REMARK  222  A    between atoms: _549  and  _552
REMARK  223  A    between atoms: _552  and  _553
REMARK  224  A    between atoms: _558  and  _560
REMARK  225  A    between atoms: _560  and  _561
REMARK  226  A    between atoms: _560  and  _563
REMARK  227  A    between atoms: _563  and  _564
REMARK  228  A    between atoms: _569  and  _571
REMARK  229  A    between atoms: _571  and  _572
REMARK  230  A    between atoms: _571  and  _574
REMARK  231  A    between atoms: _574  and  _575
REMARK  232  A    between atoms: _577  and  _579
REMARK  233  A    between atoms: _579  and  _580
REMARK  234  A    between atoms: _579  and  _582
REMARK  235  A    between atoms: _582  and  _583
REMARK  236  A    between atoms: _583  and  _584
REMARK  237  A    between atoms: _589  and  _591
REMARK  238  A    between atoms: _591  and  _592
REMARK  239  A    between atoms: _591  and  _594
REMARK  240  A    between atoms: _594  and  _595
REMARK  241  A    between atoms: _595  and  _596
REMARK                            x       y       z     vdW  Elec       q    Type
REMARK                         _______ _______ _______ _____ _____    ______ ____
ROOT
ATOM      1  O   HOH     1      29.642  63.182  32.006  0.00  0.00    +0.000 OA
ENDROOT
TORSDOF 0
REMARK  Name = ../refined-set-2016/2zq0/2zq0_pocket.pdb
REMARK  241 active torsions:
REMARK  status: ('A' for Active; 'I' for Inactive)
REMARK    1  A    between atoms: _1  and  _3
REMARK    2  A    between atoms: _3  and  _4
REMARK    3  A    between atoms: _3  and  _6
REMARK    4  A    between atoms: _6  and  _7
REMARK    5  A    between atoms: _10  and  _12
REMARK    6  A    between atoms: _12  and  _13
REMARK    7  A    between atoms: _12  and  _15
REMARK    8  A    between atoms: _15  and  _16
REMARK    9  A    between atoms: _16  and  _17
REMARK   10  A    between atoms: _22  and  _24
REMARK   11  A    between atoms: _24  and  _25
REMARK   12  A    between atoms: _24  and  _27
REMARK   13  A    between atoms: _27  and  _28
REMARK   14  A    between atoms: _28  and  _29
REMARK   15  A    between atoms: _29  and  _31
REMARK   16  A    between atoms: _31  and  CA_598
REMARK   17  A    between atoms: _32  and  _34
REMARK   18  A    between atoms: _34  and  _35
REMARK   19  A    between atoms: _34  and  _37
REMARK   20  A    between atoms: _37  and  _38
REMARK   21  A    between atoms: _42  and  _43
REMARK   22  A    between atoms: _48  and  _50
REMARK   23  A    between atoms: _50  and  _51
REMARK   24  A    between atoms: _50  and  _53
REMARK   25  A    between atoms: _53  and  _54
REMARK   26  A    between atoms: _59  and  _61
REMARK   27  A    between atoms: _61  and  _62
REMARK   28  A    between atoms: _61  and  _64
REMARK   29  A    between atoms: _64  and  _65
REMARK   30  A    between atoms: _67  and  _69
REMARK   31  A    between atoms: _69  and  _70
REMARK   32  A    between atoms: _69  and  _72
REMARK   33  A    between atoms: _72  and  _73
REMARK   34  A    between atoms: _75  and  _77
REMARK   35  A    between atoms: _77  and  _78
REMARK   36  A    between atoms: _77  and  _80
REMARK   37  A    between atoms: _80  and  _81
REMARK   38  A    between atoms: _81  and  _82
REMARK   39  A    between atoms: _87  and  _89
REMARK   40  A    between atoms: _89  and  _90
REMARK   41  A    between atoms: _89  and  _92
REMARK   42  A    between atoms: _92  and  _93
REMARK   43  A    between atoms: _98  and  _99
REMARK   44  A    between atoms: _101  and  _103
REMARK   45  A    between atoms: _103  and  _104
REMARK   46  A    between atoms: _103  and  _106
REMARK   47  A    between atoms: _109  and  _111
REMARK   48  A    between atoms: _111  and  _112
REMARK   49  A    between atoms: _111  and  _114
REMARK   50  A    between atoms: _114  and  _115
REMARK   51  A    between atoms: _125  and  _127
REMARK   52  A    between atoms: _127  and  _128
REMARK   53  A    between atoms: _127  and  _130
REMARK   54  A    between atoms: _130  and  _131
REMARK   55  A    between atoms: _141  and  _143
REMARK   56  A    between atoms: _143  and  _144
REMARK   57  A    between atoms: _143  and  _146
REMARK   58  A    between atoms: _146  and  _147
REMARK   59  A    between atoms: _147  and  _148
REMARK   60  A    between atoms: _150  and  _152
REMARK   61  A    between atoms: _152  and  _153
REMARK   62  A    between atoms: _152  and  _155
REMARK   63  A    between atoms: _155  and  _156
REMARK   64  A    between atoms: _159  and  _161
REMARK   65  A    between atoms: _161  and  _162
REMARK   66  A    between atoms: _161  and  _164
REMARK   67  A    between atoms: _164  and  _165
REMARK   68  A    between atoms: _168  and  _170
REMARK   69  A    between atoms: _170  and  _171
REMARK   70  A    between atoms: _170  and  _173
REMARK   71  A    between atoms: _173  and  _174
REMARK   72  A    between atoms: _184  and  _186
REMARK   73  A    between atoms: _186  and  _187
REMARK   74  A    between atoms: _186  and  _189
REMARK   75  A    between atoms: _189  and  _190
REMARK   76  A    between atoms: _193  and  _195
REMARK   77  A    between atoms: _195  and  _196
REMARK   78  A    between atoms: _195  and  _198
REMARK   79  A    between atoms: _198  and  _199
REMARK   80  A    between atoms: _199  and  _200
REMARK   81  A    between atoms: _203  and  _205
REMARK   82  A    between atoms: _205  and  _206
REMARK   83  A    between atoms: _208  and  _210
REMARK   84  A    between atoms: _210  and  _211
REMARK   85  A    between atoms: _210  and  _213
REMARK   86  A    between atoms: _213  and  _214
REMARK   87  A    between atoms: _224  and  _226
REMARK   88  A    between atoms: _226  and  _227
REMARK   89  A    between atoms: _226  and  _229
REMARK   90  A    between atoms: _229  and  _230
REMARK   91  A    between atoms: _240  and  _242
REMARK   92  A    between atoms: _242  and  _243
REMARK   93  A    between atoms: _242  and  _245
REMARK   94  A    between atoms: _245  and  _246
REMARK   95  A    between atoms: _252  and  _254
REMARK   96  A    between atoms: _254  and  _255
REMARK   97  A    between atoms: _254  and  _257
REMARK   98  A    between atoms: _257  and  _258
REMARK   99  A    between atoms: _264  and  _266
REMARK  100  A    between atoms: _266  and  _267
REMARK  101  A    between atoms: _266  and  _269
REMARK  102  A    between atoms: _269  and  _270
REMARK  103  A    between atoms: _275  and  _277
REMARK  104  A    between atoms: _277  and  _278
REMARK  105  A    between atoms: _277  and  _280
REMARK  106  A    between atoms: _280  and  _281
REMARK  107  A    between atoms: _286  and  _288
REMARK  108  A    between atoms: _288  and  _289
REMARK  109  A    between atoms: _288  and  _291
REMARK  110  A    between atoms: _291  and  _292
REMARK  111  A    between atoms: _292  and  _293
REMARK  112  A    between atoms: _296  and  _298
REMARK  113  A    between atoms: _298  and  _299
REMARK  114  A    between atoms: _298  and  _301
REMARK  115  A    between atoms: _301  and  _302
REMARK  116  A    between atoms: _305  and  _307
REMARK  117  A    between atoms: _307  and  _308
REMARK  118  A    between atoms: _307  and  _310
REMARK  119  A    between atoms: _310  and  _311
REMARK  120  A    between atoms: _313  and  _315
REMARK  121  A    between atoms: _315  and  _316
REMARK  122  A    between atoms: _315  and  _318
REMARK  123  A    between atoms: _318  and  _319
REMARK  124  A    between atoms: _319  and  _320
REMARK  125  A    between atoms: _320  and  _321
REMARK  126  A    between atoms: _321  and  _322
REMARK  127  A    between atoms: _326  and  _328
REMARK  128  A    between atoms: _328  and  _329
REMARK  129  A    between atoms: _328  and  _331
REMARK  130  A    between atoms: _331  and  _332
REMARK  131  A    between atoms: _334  and  _336
REMARK  132  A    between atoms: _336  and  _337
REMARK  133  A    between atoms: _339  and  _341
REMARK  134  A    between atoms: _341  and  _342
REMARK  135  A    between atoms: _341  and  _344
REMARK  136  A    between atoms: _344  and  _345
REMARK  137  A    between atoms: _350  and  _351
REMARK  138  A    between atoms: _353  and  _355
REMARK  139  A    between atoms: _355  and  _356
REMARK  140  A    between atoms: _355  and  _358
REMARK  141  A    between atoms: _361  and  _363
REMARK  142  A    between atoms: _363  and  _364
REMARK  143  A    between atoms: _366  and  _368
REMARK  144  A    between atoms: _368  and  _369
REMARK  145  A    between atoms: _368  and  _371
REMARK  146  A    between atoms: _371  and  _372
REMARK  147  A    between atoms: _377  and  _379
REMARK  148  A    between atoms: _379  and  _380
REMARK  149  A    between atoms: _383  and  _385
REMARK  150  A    between atoms: _385  and  _386
REMARK  151  A    between atoms: _385  and  _388
REMARK  152  A    between atoms: _388  and  _389
REMARK  153  A    between atoms: _394  and  _396
REMARK  154  A    between atoms: _396  and  _397
REMARK  155  A    between atoms: _396  and  _399
REMARK  156  A    between atoms: _399  and  _400
REMARK  157  A    between atoms: _400  and  _401
REMARK  158  A    between atoms: _401  and  _402
REMARK  159  A    between atoms: _402  and  CA_598
REMARK  160  A    between atoms: _404  and  _406
REMARK  161  A    between atoms: _406  and  _407
REMARK  162  A    between atoms: _406  and  _409
REMARK  163  A    between atoms: _409  and  _410
REMARK  164  A    between atoms: _410  and  _411
REMARK  165  A    between atoms: _414  and  _416
REMARK  166  A    between atoms: _416  and  _417
REMARK  167  A    between atoms: _416  and  _419
REMARK  168  A    between atoms: _419  and  _420
REMARK  169  A    between atoms: _422  and  _424
REMARK  170  A    between atoms: _424  and  _425
REMARK  171  A    between atoms: _428  and  _430
REMARK  172  A    between atoms: _430  and  _431
REMARK  173  A    between atoms: _430  and  _433
REMARK  174  A    between atoms: _433  and  _434
REMARK  175  A    between atoms: _434  and  _435
REMARK  176  A    between atoms: _435  and  _436
REMARK  177  A    between atoms: _445  and  _447
REMARK  178  A    between atoms: _447  and  _448
REMARK  179  A    between atoms: _450  and  _452
REMARK  180  A    between atoms: _452  and  _453
REMARK  181  A    between atoms: _452  and  _455
REMARK  182  A    between atoms: _455  and  _456
REMARK  183  A    between atoms: _459  and  _461
REMARK  184  A    between atoms: _461  and  _462
REMARK  185  A    between atoms: _461  and  _464
REMARK  186  A    between atoms: _464  and  _465
REMARK  187  A    between atoms: _465  and  _466
REMARK  188  A    between atoms: _469  and  _471
REMARK  189  A    between atoms: _471  and  _472
REMARK  190  A    between atoms: _471  and  _474
REMARK  191  A    between atoms: _474  and  _475
REMARK  192  A    between atoms: _480  and  _481
REMARK  193  A    between atoms: _483  and  _485
REMARK  194  A    between atoms: _485  and  _486
REMARK  195  A    between atoms: _485  and  _488
REMARK  196  A    between atoms: _488  and  _489
REMARK  197  A    between atoms: _489  and  _490
REMARK  198  A    between atoms: _493  and  _495
REMARK  199  A    between atoms: _495  and  _496
REMARK  200  A    between atoms: _495  and  _498
REMARK  201  A    between atoms: _498  and  _499
REMARK  202  A    between atoms: _501  and  _503
REMARK  203  A    between atoms: _503  and  _504
REMARK  204  A    between atoms: _503  and  _506
REMARK  205  A    between atoms: _506  and  _507
REMARK  206  A    between atoms: _513  and  _515
REMARK  207  A    between atoms: _515  and  _516
REMARK  208  A    between atoms: _518  and  _520
REMARK  209  A    between atoms: _520  and  _521
REMARK  210  A    between atoms: _523  and  _525
REMARK  211  A    between atoms: _525  and  _526
REMARK  212  A    between atoms: _525  and  _528
REMARK  213  A    between atoms: _528  and  _529
REMARK  214  A    between atoms: _532  and  _534
REMARK  215  A    between atoms: _534  and  _535
REMARK  216  A    between atoms: _534  and  _537
REMARK  217  A    between atoms: _537  and  _538
REMARK  218  A    between atoms: _541  and  _543
REMARK  219  A    between atoms: _543  and  _544
REMARK  220  A    between atoms: _547  and  _549
REMARK  221  A    between atoms: _549  and  _550
REMARK  222  A    between atoms: _549  and  _552
REMARK  223  A    between atoms: _552  and  _553
REMARK  224  A    between atoms: _558  and  _560
REMARK  225  A    between atoms: _560  and  _561
REMARK  226  A    between atoms: _560  and  _563
REMARK  227  A    between atoms: _563  and  _564
REMARK  228  A    between atoms: _569  and  _571
REMARK  229  A    between atoms: _571  and  _572
REMARK  230  A    between atoms: _571  and  _574
REMARK  231  A    between atoms: _574  and  _575
REMARK  232  A    between atoms: _577  and  _579
REMARK  233  A    between atoms: _579  and  _580
REMARK  234  A    between atoms: _579  and  _582
REMARK  235  A    between atoms: _582  and  _583
REMARK  236  A    between atoms: _583  and  _584
REMARK  237  A    between atoms: _589  and  _591
REMARK  238  A    between atoms: _591  and  _592
REMARK  239  A    between atoms: _591  and  _594
REMARK  240  A    between atoms: _594  and  _595
REMARK  241  A    between atoms: _595  and  _596
REMARK                            x       y       z     vdW  Elec       q    Type
REMARK                         _______ _______ _______ _____ _____    ______ ____
ROOT
ATOM      1  O   HOH     1      27.464  62.880  38.190  0.00  0.00    +0.000 OA
ENDROOT
TORSDOF 0
REMARK  Name = ../refined-set-2016/2zq0/2zq0_pocket.pdb
REMARK  241 active torsions:
REMARK  status: ('A' for Active; 'I' for Inactive)
REMARK    1  A    between atoms: _1  and  _3
REMARK    2  A    between atoms: _3  and  _4
REMARK    3  A    between atoms: _3  and  _6
REMARK    4  A    between atoms: _6  and  _7
REMARK    5  A    between atoms: _10  and  _12
REMARK    6  A    between atoms: _12  and  _13
REMARK    7  A    between atoms: _12  and  _15
REMARK    8  A    between atoms: _15  and  _16
REMARK    9  A    between atoms: _16  and  _17
REMARK   10  A    between atoms: _22  and  _24
REMARK   11  A    between atoms: _24  and  _25
REMARK   12  A    between atoms: _24  and  _27
REMARK   13  A    between atoms: _27  and  _28
REMARK   14  A    between atoms: _28  and  _29
REMARK   15  A    between atoms: _29  and  _31
REMARK   16  A    between atoms: _31  and  CA_598
REMARK   17  A    between atoms: _32  and  _34
REMARK   18  A    between atoms: _34  and  _35
REMARK   19  A    between atoms: _34  and  _37
REMARK   20  A    between atoms: _37  and  _38
REMARK   21  A    between atoms: _42  and  _43
REMARK   22  A    between atoms: _48  and  _50
REMARK   23  A    between atoms: _50  and  _51
REMARK   24  A    between atoms: _50  and  _53
REMARK   25  A    between atoms: _53  and  _54
REMARK   26  A    between atoms: _59  and  _61
REMARK   27  A    between atoms: _61  and  _62
REMARK   28  A    between atoms: _61  and  _64
REMARK   29  A    between atoms: _64  and  _65
REMARK   30  A    between atoms: _67  and  _69
REMARK   31  A    between atoms: _69  and  _70
REMARK   32  A    between atoms: _69  and  _72
REMARK   33  A    between atoms: _72  and  _73
REMARK   34  A    between atoms: _75  and  _77
REMARK   35  A    between atoms: _77  and  _78
REMARK   36  A    between atoms: _77  and  _80
REMARK   37  A    between atoms: _80  and  _81
REMARK   38  A    between atoms: _81  and  _82
REMARK   39  A    between atoms: _87  and  _89
REMARK   40  A    between atoms: _89  and  _90
REMARK   41  A    between atoms: _89  and  _92
REMARK   42  A    between atoms: _92  and  _93
REMARK   43  A    between atoms: _98  and  _99
REMARK   44  A    between atoms: _101  and  _103
REMARK   45  A    between atoms: _103  and  _104
REMARK   46  A    between atoms: _103  and  _106
REMARK   47  A    between atoms: _109  and  _111
REMARK   48  A    between atoms: _111  and  _112
REMARK   49  A    between atoms: _111  and  _114
REMARK   50  A    between atoms: _114  and  _115
REMARK   51  A    between atoms: _125  and  _127
REMARK   52  A    between atoms: _127  and  _128
REMARK   53  A    between atoms: _127  and  _130
REMARK   54  A    between atoms: _130  and  _131
REMARK   55  A    between atoms: _141  and  _143
REMARK   56  A    between atoms: _143  and  _144
REMARK   57  A    between atoms: _143  and  _146
REMARK   58  A    between atoms: _146  and  _147
REMARK   59  A    between atoms: _147  and  _148
REMARK   60  A    between atoms: _150  and  _152
REMARK   61  A    between atoms: _152  and  _153
REMARK   62  A    between atoms: _152  and  _155
REMARK   63  A    between atoms: _155  and  _156
REMARK   64  A    between atoms: _159  and  _161
REMARK   65  A    between atoms: _161  and  _162
REMARK   66  A    between atoms: _161  and  _164
REMARK   67  A    between atoms: _164  and  _165
REMARK   68  A    between atoms: _168  and  _170
REMARK   69  A    between atoms: _170  and  _171
REMARK   70  A    between atoms: _170  and  _173
REMARK   71  A    between atoms: _173  and  _174
REMARK   72  A    between atoms: _184  and  _186
REMARK   73  A    between atoms: _186  and  _187
REMARK   74  A    between atoms: _186  and  _189
REMARK   75  A    between atoms: _189  and  _190
REMARK   76  A    between atoms: _193  and  _195
REMARK   77  A    between atoms: _195  and  _196
REMARK   78  A    between atoms: _195  and  _198
REMARK   79  A    between atoms: _198  and  _199
REMARK   80  A    between atoms: _199  and  _200
REMARK   81  A    between atoms: _203  and  _205
REMARK   82  A    between atoms: _205  and  _206
REMARK   83  A    between atoms: _208  and  _210
REMARK   84  A    between atoms: _210  and  _211
REMARK   85  A    between atoms: _210  and  _213
REMARK   86  A    between atoms: _213  and  _214
REMARK   87  A    between atoms: _224  and  _226
REMARK   88  A    between atoms: _226  and  _227
REMARK   89  A    between atoms: _226  and  _229
REMARK   90  A    between atoms: _229  and  _230
REMARK   91  A    between atoms: _240  and  _242
REMARK   92  A    between atoms: _242  and  _243
REMARK   93  A    between atoms: _242  and  _245
REMARK   94  A    between atoms: _245  and  _246
REMARK   95  A    between atoms: _252  and  _254
REMARK   96  A    between atoms: _254  and  _255
REMARK   97  A    between atoms: _254  and  _257
REMARK   98  A    between atoms: _257  and  _258
REMARK   99  A    between atoms: _264  and  _266
REMARK  100  A    between atoms: _266  and  _267
REMARK  101  A    between atoms: _266  and  _269
REMARK  102  A    between atoms: _269  and  _270
REMARK  103  A    between atoms: _275  and  _277
REMARK  104  A    between atoms: _277  and  _278
REMARK  105  A    between atoms: _277  and  _280
REMARK  106  A    between atoms: _280  and  _281
REMARK  107  A    between atoms: _286  and  _288
REMARK  108  A    between atoms: _288  and  _289
REMARK  109  A    between atoms: _288  and  _291
REMARK  110  A    between atoms: _291  and  _292
REMARK  111  A    between atoms: _292  and  _293
REMARK  112  A    between atoms: _296  and  _298
REMARK  113  A    between atoms: _298  and  _299
REMARK  114  A    between atoms: _298  and  _301
REMARK  115  A    between atoms: _301  and  _302
REMARK  116  A    between atoms: _305  and  _307
REMARK  117  A    between atoms: _307  and  _308
REMARK  118  A    between atoms: _307  and  _310
REMARK  119  A    between atoms: _310  and  _311
REMARK  120  A    between atoms: _313  and  _315
REMARK  121  A    between atoms: _315  and  _316
REMARK  122  A    between atoms: _315  and  _318
REMARK  123  A    between atoms: _318  and  _319
REMARK  124  A    between atoms: _319  and  _320
REMARK  125  A    between atoms: _320  and  _321
REMARK  126  A    between atoms: _321  and  _322
REMARK  127  A    between atoms: _326  and  _328
REMARK  128  A    between atoms: _328  and  _329
REMARK  129  A    between atoms: _328  and  _331
REMARK  130  A    between atoms: _331  and  _332
REMARK  131  A    between atoms: _334  and  _336
REMARK  132  A    between atoms: _336  and  _337
REMARK  133  A    between atoms: _339  and  _341
REMARK  134  A    between atoms: _341  and  _342
REMARK  135  A    between atoms: _341  and  _344
REMARK  136  A    between atoms: _344  and  _345
REMARK  137  A    between atoms: _350  and  _351
REMARK  138  A    between atoms: _353  and  _355
REMARK  139  A    between atoms: _355  and  _356
REMARK  140  A    between atoms: _355  and  _358
REMARK  141  A    between atoms: _361  and  _363
REMARK  142  A    between atoms: _363  and  _364
REMARK  143  A    between atoms: _366  and  _368
REMARK  144  A    between atoms: _368  and  _369
REMARK  145  A    between atoms: _368  and  _371
REMARK  146  A    between atoms: _371  and  _372
REMARK  147  A    between atoms: _377  and  _379
REMARK  148  A    between atoms: _379  and  _380
REMARK  149  A    between atoms: _383  and  _385
REMARK  150  A    between atoms: _385  and  _386
REMARK  151  A    between atoms: _385  and  _388
REMARK  152  A    between atoms: _388  and  _389
REMARK  153  A    between atoms: _394  and  _396
REMARK  154  A    between atoms: _396  and  _397
REMARK  155  A    between atoms: _396  and  _399
REMARK  156  A    between atoms: _399  and  _400
REMARK  157  A    between atoms: _400  and  _401
REMARK  158  A    between atoms: _401  and  _402
REMARK  159  A    between atoms: _402  and  CA_598
REMARK  160  A    between atoms: _404  and  _406
REMARK  161  A    between atoms: _406  and  _407
REMARK  162  A    between atoms: _406  and  _409
REMARK  163  A    between atoms: _409  and  _410
REMARK  164  A    between atoms: _410  and  _411
REMARK  165  A    between atoms: _414  and  _416
REMARK  166  A    between atoms: _416  and  _417
REMARK  167  A    between atoms: _416  and  _419
REMARK  168  A    between atoms: _419  and  _420
REMARK  169  A    between atoms: _422  and  _424
REMARK  170  A    between atoms: _424  and  _425
REMARK  171  A    between atoms: _428  and  _430
REMARK  172  A    between atoms: _430  and  _431
REMARK  173  A    between atoms: _430  and  _433
REMARK  174  A    between atoms: _433  and  _434
REMARK  175  A    between atoms: _434  and  _435
REMARK  176  A    between atoms: _435  and  _436
REMARK  177  A    between atoms: _445  and  _447
REMARK  178  A    between atoms: _447  and  _448
REMARK  179  A    between atoms: _450  and  _452
REMARK  180  A    between atoms: _452  and  _453
REMARK  181  A    between atoms: _452  and  _455
REMARK  182  A    between atoms: _455  and  _456
REMARK  183  A    between atoms: _459  and  _461
REMARK  184  A    between atoms: _461  and  _462
REMARK  185  A    between atoms: _461  and  _464
REMARK  186  A    between atoms: _464  and  _465
REMARK  187  A    between atoms: _465  and  _466
REMARK  188  A    between atoms: _469  and  _471
REMARK  189  A    between atoms: _471  and  _472
REMARK  190  A    between atoms: _471  and  _474
REMARK  191  A    between atoms: _474  and  _475
REMARK  192  A    between atoms: _480  and  _481
REMARK  193  A    between atoms: _483  and  _485
REMARK  194  A    between atoms: _485  and  _486
REMARK  195  A    between atoms: _485  and  _488
REMARK  196  A    between atoms: _488  and  _489
REMARK  197  A    between atoms: _489  and  _490
REMARK  198  A    between atoms: _493  and  _495
REMARK  199  A    between atoms: _495  and  _496
REMARK  200  A    between atoms: _495  and  _498
REMARK  201  A    between atoms: _498  and  _499
REMARK  202  A    between atoms: _501  and  _503
REMARK  203  A    between atoms: _503  and  _504
REMARK  204  A    between atoms: _503  and  _506
REMARK  205  A    between atoms: _506  and  _507
REMARK  206  A    between atoms: _513  and  _515
REMARK  207  A    between atoms: _515  and  _516
REMARK  208  A    between atoms: _518  and  _520
REMARK  209  A    between atoms: _520  and  _521
REMARK  210  A    between atoms: _523  and  _525
REMARK  211  A    between atoms: _525  and  _526
REMARK  212  A    between atoms: _525  and  _528
REMARK  213  A    between atoms: _528  and  _529
REMARK  214  A    between atoms: _532  and  _534
REMARK  215  A    between atoms: _534  and  _535
REMARK  216  A    between atoms: _534  and  _537
REMARK  217  A    between atoms: _537  and  _538
REMARK  218  A    between atoms: _541  and  _543
REMARK  219  A    between atoms: _543  and  _544
REMARK  220  A    between atoms: _547  and  _549
REMARK  221  A    between atoms: _549  and  _550
REMARK  222  A    between atoms: _549  and  _552
REMARK  223  A    between atoms: _552  and  _553
REMARK  224  A    between atoms: _558  and  _560
REMARK  225  A    between atoms: _560  and  _561
REMARK  226  A    between atoms: _560  and  _563
REMARK  227  A    between atoms: _563  and  _564
REMARK  228  A    between atoms: _569  and  _571
REMARK  229  A    between atoms: _571  and  _572
REMARK  230  A    between atoms: _571  and  _574
REMARK  231  A    between atoms: _574  and  _575
REMARK  232  A    between atoms: _577  and  _579
REMARK  233  A    between atoms: _579  and  _580
REMARK  234  A    between atoms: _579  and  _582
REMARK  235  A    between atoms: _582  and  _583
REMARK  236  A    between atoms: _583  and  _584
REMARK  237  A    between atoms: _589  and  _591
REMARK  238  A    between atoms: _591  and  _592
REMARK  239  A    between atoms: _591  and  _594
REMARK  240  A    between atoms: _594  and  _595
REMARK  241  A    between atoms: _595  and  _596
REMARK                            x       y       z     vdW  Elec       q    Type
REMARK                         _______ _______ _______ _____ _____    ______ ____
ROOT
ATOM      1  O   HOH     1      20.233  57.932  30.795  0.00  0.00    +0.000 OA
ENDROOT
TORSDOF 0
REMARK  Name = ../refined-set-2016/2zq0/2zq0_pocket.pdb
REMARK  241 active torsions:
REMARK  status: ('A' for Active; 'I' for Inactive)
REMARK    1  A    between atoms: _1  and  _3
REMARK    2  A    between atoms: _3  and  _4
REMARK    3  A    between atoms: _3  and  _6
REMARK    4  A    between atoms: _6  and  _7
REMARK    5  A    between atoms: _10  and  _12
REMARK    6  A    between atoms: _12  and  _13
REMARK    7  A    between atoms: _12  and  _15
REMARK    8  A    between atoms: _15  and  _16
REMARK    9  A    between atoms: _16  and  _17
REMARK   10  A    between atoms: _22  and  _24
REMARK   11  A    between atoms: _24  and  _25
REMARK   12  A    between atoms: _24  and  _27
REMARK   13  A    between atoms: _27  and  _28
REMARK   14  A    between atoms: _28  and  _29
REMARK   15  A    between atoms: _29  and  _31
REMARK   16  A    between atoms: _31  and  CA_598
REMARK   17  A    between atoms: _32  and  _34
REMARK   18  A    between atoms: _34  and  _35
REMARK   19  A    between atoms: _34  and  _37
REMARK   20  A    between atoms: _37  and  _38
REMARK   21  A    between atoms: _42  and  _43
REMARK   22  A    between atoms: _48  and  _50
REMARK   23  A    between atoms: _50  and  _51
REMARK   24  A    between atoms: _50  and  _53
REMARK   25  A    between atoms: _53  and  _54
REMARK   26  A    between atoms: _59  and  _61
REMARK   27  A    between atoms: _61  and  _62
REMARK   28  A    between atoms: _61  and  _64
REMARK   29  A    between atoms: _64  and  _65
REMARK   30  A    between atoms: _67  and  _69
REMARK   31  A    between atoms: _69  and  _70
REMARK   32  A    between atoms: _69  and  _72
REMARK   33  A    between atoms: _72  and  _73
REMARK   34  A    between atoms: _75  and  _77
REMARK   35  A    between atoms: _77  and  _78
REMARK   36  A    between atoms: _77  and  _80
REMARK   37  A    between atoms: _80  and  _81
REMARK   38  A    between atoms: _81  and  _82
REMARK   39  A    between atoms: _87  and  _89
REMARK   40  A    between atoms: _89  and  _90
REMARK   41  A    between atoms: _89  and  _92
REMARK   42  A    between atoms: _92  and  _93
REMARK   43  A    between atoms: _98  and  _99
REMARK   44  A    between atoms: _101  and  _103
REMARK   45  A    between atoms: _103  and  _104
REMARK   46  A    between atoms: _103  and  _106
REMARK   47  A    between atoms: _109  and  _111
REMARK   48  A    between atoms: _111  and  _112
REMARK   49  A    between atoms: _111  and  _114
REMARK   50  A    between atoms: _114  and  _115
REMARK   51  A    between atoms: _125  and  _127
REMARK   52  A    between atoms: _127  and  _128
REMARK   53  A    between atoms: _127  and  _130
REMARK   54  A    between atoms: _130  and  _131
REMARK   55  A    between atoms: _141  and  _143
REMARK   56  A    between atoms: _143  and  _144
REMARK   57  A    between atoms: _143  and  _146
REMARK   58  A    between atoms: _146  and  _147
REMARK   59  A    between atoms: _147  and  _148
REMARK   60  A    between atoms: _150  and  _152
REMARK   61  A    between atoms: _152  and  _153
REMARK   62  A    between atoms: _152  and  _155
REMARK   63  A    between atoms: _155  and  _156
REMARK   64  A    between atoms: _159  and  _161
REMARK   65  A    between atoms: _161  and  _162
REMARK   66  A    between atoms: _161  and  _164
REMARK   67  A    between atoms: _164  and  _165
REMARK   68  A    between atoms: _168  and  _170
REMARK   69  A    between atoms: _170  and  _171
REMARK   70  A    between atoms: _170  and  _173
REMARK   71  A    between atoms: _173  and  _174
REMARK   72  A    between atoms: _184  and  _186
REMARK   73  A    between atoms: _186  and  _187
REMARK   74  A    between atoms: _186  and  _189
REMARK   75  A    between atoms: _189  and  _190
REMARK   76  A    between atoms: _193  and  _195
REMARK   77  A    between atoms: _195  and  _196
REMARK   78  A    between atoms: _195  and  _198
REMARK   79  A    between atoms: _198  and  _199
REMARK   80  A    between atoms: _199  and  _200
REMARK   81  A    between atoms: _203  and  _205
REMARK   82  A    between atoms: _205  and  _206
REMARK   83  A    between atoms: _208  and  _210
REMARK   84  A    between atoms: _210  and  _211
REMARK   85  A    between atoms: _210  and  _213
REMARK   86  A    between atoms: _213  and  _214
REMARK   87  A    between atoms: _224  and  _226
REMARK   88  A    between atoms: _226  and  _227
REMARK   89  A    between atoms: _226  and  _229
REMARK   90  A    between atoms: _229  and  _230
REMARK   91  A    between atoms: _240  and  _242
REMARK   92  A    between atoms: _242  and  _243
REMARK   93  A    between atoms: _242  and  _245
REMARK   94  A    between atoms: _245  and  _246
REMARK   95  A    between atoms: _252  and  _254
REMARK   96  A    between atoms: _254  and  _255
REMARK   97  A    between atoms: _254  and  _257
REMARK   98  A    between atoms: _257  and  _258
REMARK   99  A    between atoms: _264  and  _266
REMARK  100  A    between atoms: _266  and  _267
REMARK  101  A    between atoms: _266  and  _269
REMARK  102  A    between atoms: _269  and  _270
REMARK  103  A    between atoms: _275  and  _277
REMARK  104  A    between atoms: _277  and  _278
REMARK  105  A    between atoms: _277  and  _280
REMARK  106  A    between atoms: _280  and  _281
REMARK  107  A    between atoms: _286  and  _288
REMARK  108  A    between atoms: _288  and  _289
REMARK  109  A    between atoms: _288  and  _291
REMARK  110  A    between atoms: _291  and  _292
REMARK  111  A    between atoms: _292  and  _293
REMARK  112  A    between atoms: _296  and  _298
REMARK  113  A    between atoms: _298  and  _299
REMARK  114  A    between atoms: _298  and  _301
REMARK  115  A    between atoms: _301  and  _302
REMARK  116  A    between atoms: _305  and  _307
REMARK  117  A    between atoms: _307  and  _308
REMARK  118  A    between atoms: _307  and  _310
REMARK  119  A    between atoms: _310  and  _311
REMARK  120  A    between atoms: _313  and  _315
REMARK  121  A    between atoms: _315  and  _316
REMARK  122  A    between atoms: _315  and  _318
REMARK  123  A    between atoms: _318  and  _319
REMARK  124  A    between atoms: _319  and  _320
REMARK  125  A    between atoms: _320  and  _321
REMARK  126  A    between atoms: _321  and  _322
REMARK  127  A    between atoms: _326  and  _328
REMARK  128  A    between atoms: _328  and  _329
REMARK  129  A    between atoms: _328  and  _331
REMARK  130  A    between atoms: _331  and  _332
REMARK  131  A    between atoms: _334  and  _336
REMARK  132  A    between atoms: _336  and  _337
REMARK  133  A    between atoms: _339  and  _341
REMARK  134  A    between atoms: _341  and  _342
REMARK  135  A    between atoms: _341  and  _344
REMARK  136  A    between atoms: _344  and  _345
REMARK  137  A    between atoms: _350  and  _351
REMARK  138  A    between atoms: _353  and  _355
REMARK  139  A    between atoms: _355  and  _356
REMARK  140  A    between atoms: _355  and  _358
REMARK  141  A    between atoms: _361  and  _363
REMARK  142  A    between atoms: _363  and  _364
REMARK  143  A    between atoms: _366  and  _368
REMARK  144  A    between atoms: _368  and  _369
REMARK  145  A    between atoms: _368  and  _371
REMARK  146  A    between atoms: _371  and  _372
REMARK  147  A    between atoms: _377  and  _379
REMARK  148  A    between atoms: _379  and  _380
REMARK  149  A    between atoms: _383  and  _385
REMARK  150  A    between atoms: _385  and  _386
REMARK  151  A    between atoms: _385  and  _388
REMARK  152  A    between atoms: _388  and  _389
REMARK  153  A    between atoms: _394  and  _396
REMARK  154  A    between atoms: _396  and  _397
REMARK  155  A    between atoms: _396  and  _399
REMARK  156  A    between atoms: _399  and  _400
REMARK  157  A    between atoms: _400  and  _401
REMARK  158  A    between atoms: _401  and  _402
REMARK  159  A    between atoms: _402  and  CA_598
REMARK  160  A    between atoms: _404  and  _406
REMARK  161  A    between atoms: _406  and  _407
REMARK  162  A    between atoms: _406  and  _409
REMARK  163  A    between atoms: _409  and  _410
REMARK  164  A    between atoms: _410  and  _411
REMARK  165  A    between atoms: _414  and  _416
REMARK  166  A    between atoms: _416  and  _417
REMARK  167  A    between atoms: _416  and  _419
REMARK  168  A    between atoms: _419  and  _420
REMARK  169  A    between atoms: _422  and  _424
REMARK  170  A    between atoms: _424  and  _425
REMARK  171  A    between atoms: _428  and  _430
REMARK  172  A    between atoms: _430  and  _431
REMARK  173  A    between atoms: _430  and  _433
REMARK  174  A    between atoms: _433  and  _434
REMARK  175  A    between atoms: _434  and  _435
REMARK  176  A    between atoms: _435  and  _436
REMARK  177  A    between atoms: _445  and  _447
REMARK  178  A    between atoms: _447  and  _448
REMARK  179  A    between atoms: _450  and  _452
REMARK  180  A    between atoms: _452  and  _453
REMARK  181  A    between atoms: _452  and  _455
REMARK  182  A    between atoms: _455  and  _456
REMARK  183  A    between atoms: _459  and  _461
REMARK  184  A    between atoms: _461  and  _462
REMARK  185  A    between atoms: _461  and  _464
REMARK  186  A    between atoms: _464  and  _465
REMARK  187  A    between atoms: _465  and  _466
REMARK  188  A    between atoms: _469  and  _471
REMARK  189  A    between atoms: _471  and  _472
REMARK  190  A    between atoms: _471  and  _474
REMARK  191  A    between atoms: _474  and  _475
REMARK  192  A    between atoms: _480  and  _481
REMARK  193  A    between atoms: _483  and  _485
REMARK  194  A    between atoms: _485  and  _486
REMARK  195  A    between atoms: _485  and  _488
REMARK  196  A    between atoms: _488  and  _489
REMARK  197  A    between atoms: _489  and  _490
REMARK  198  A    between atoms: _493  and  _495
REMARK  199  A    between atoms: _495  and  _496
REMARK  200  A    between atoms: _495  and  _498
REMARK  201  A    between atoms: _498  and  _499
REMARK  202  A    between atoms: _501  and  _503
REMARK  203  A    between atoms: _503  and  _504
REMARK  204  A    between atoms: _503  and  _506
REMARK  205  A    between atoms: _506  and  _507
REMARK  206  A    between atoms: _513  and  _515
REMARK  207  A    between atoms: _515  and  _516
REMARK  208  A    between atoms: _518  and  _520
REMARK  209  A    between atoms: _520  and  _521
REMARK  210  A    between atoms: _523  and  _525
REMARK  211  A    between atoms: _525  and  _526
REMARK  212  A    between atoms: _525  and  _528
REMARK  213  A    between atoms: _528  and  _529
REMARK  214  A    between atoms: _532  and  _534
REMARK  215  A    between atoms: _534  and  _535
REMARK  216  A    between atoms: _534  and  _537
REMARK  217  A    between atoms: _537  and  _538
REMARK  218  A    between atoms: _541  and  _543
REMARK  219  A    between atoms: _543  and  _544
REMARK  220  A    between atoms: _547  and  _549
REMARK  221  A    between atoms: _549  and  _550
REMARK  222  A    between atoms: _549  and  _552
REMARK  223  A    between atoms: _552  and  _553
REMARK  224  A    between atoms: _558  and  _560
REMARK  225  A    between atoms: _560  and  _561
REMARK  226  A    between atoms: _560  and  _563
REMARK  227  A    between atoms: _563  and  _564
REMARK  228  A    between atoms: _569  and  _571
REMARK  229  A    between atoms: _571  and  _572
REMARK  230  A    between atoms: _571  and  _574
REMARK  231  A    between atoms: _574  and  _575
REMARK  232  A    between atoms: _577  and  _579
REMARK  233  A    between atoms: _579  and  _580
REMARK  234  A    between atoms: _579  and  _582
REMARK  235  A    between atoms: _582  and  _583
REMARK  236  A    between atoms: _583  and  _584
REMARK  237  A    between atoms: _589  and  _591
REMARK  238  A    between atoms: _591  and  _592
REMARK  239  A    between atoms: _591  and  _594
REMARK  240  A    between atoms: _594  and  _595
REMARK  241  A    between atoms: _595  and  _596
REMARK                            x       y       z     vdW  Elec       q    Type
REMARK                         _______ _______ _______ _____ _____    ______ ____
ROOT
ATOM      1  O   HOH     1      24.761  59.247  39.456  0.00  0.00    +0.000 OA
ENDROOT
TORSDOF 0
REMARK  Name = ../refined-set-2016/2zq0/2zq0_pocket.pdb
REMARK  241 active torsions:
REMARK  status: ('A' for Active; 'I' for Inactive)
REMARK    1  A    between atoms: _1  and  _3
REMARK    2  A    between atoms: _3  and  _4
REMARK    3  A    between atoms: _3  and  _6
REMARK    4  A    between atoms: _6  and  _7
REMARK    5  A    between atoms: _10  and  _12
REMARK    6  A    between atoms: _12  and  _13
REMARK    7  A    between atoms: _12  and  _15
REMARK    8  A    between atoms: _15  and  _16
REMARK    9  A    between atoms: _16  and  _17
REMARK   10  A    between atoms: _22  and  _24
REMARK   11  A    between atoms: _24  and  _25
REMARK   12  A    between atoms: _24  and  _27
REMARK   13  A    between atoms: _27  and  _28
REMARK   14  A    between atoms: _28  and  _29
REMARK   15  A    between atoms: _29  and  _31
REMARK   16  A    between atoms: _31  and  CA_598
REMARK   17  A    between atoms: _32  and  _34
REMARK   18  A    between atoms: _34  and  _35
REMARK   19  A    between atoms: _34  and  _37
REMARK   20  A    between atoms: _37  and  _38
REMARK   21  A    between atoms: _42  and  _43
REMARK   22  A    between atoms: _48  and  _50
REMARK   23  A    between atoms: _50  and  _51
REMARK   24  A    between atoms: _50  and  _53
REMARK   25  A    between atoms: _53  and  _54
REMARK   26  A    between atoms: _59  and  _61
REMARK   27  A    between atoms: _61  and  _62
REMARK   28  A    between atoms: _61  and  _64
REMARK   29  A    between atoms: _64  and  _65
REMARK   30  A    between atoms: _67  and  _69
REMARK   31  A    between atoms: _69  and  _70
REMARK   32  A    between atoms: _69  and  _72
REMARK   33  A    between atoms: _72  and  _73
REMARK   34  A    between atoms: _75  and  _77
REMARK   35  A    between atoms: _77  and  _78
REMARK   36  A    between atoms: _77  and  _80
REMARK   37  A    between atoms: _80  and  _81
REMARK   38  A    between atoms: _81  and  _82
REMARK   39  A    between atoms: _87  and  _89
REMARK   40  A    between atoms: _89  and  _90
REMARK   41  A    between atoms: _89  and  _92
REMARK   42  A    between atoms: _92  and  _93
REMARK   43  A    between atoms: _98  and  _99
REMARK   44  A    between atoms: _101  and  _103
REMARK   45  A    between atoms: _103  and  _104
REMARK   46  A    between atoms: _103  and  _106
REMARK   47  A    between atoms: _109  and  _111
REMARK   48  A    between atoms: _111  and  _112
REMARK   49  A    between atoms: _111  and  _114
REMARK   50  A    between atoms: _114  and  _115
REMARK   51  A    between atoms: _125  and  _127
REMARK   52  A    between atoms: _127  and  _128
REMARK   53  A    between atoms: _127  and  _130
REMARK   54  A    between atoms: _130  and  _131
REMARK   55  A    between atoms: _141  and  _143
REMARK   56  A    between atoms: _143  and  _144
REMARK   57  A    between atoms: _143  and  _146
REMARK   58  A    between atoms: _146  and  _147
REMARK   59  A    between atoms: _147  and  _148
REMARK   60  A    between atoms: _150  and  _152
REMARK   61  A    between atoms: _152  and  _153
REMARK   62  A    between atoms: _152  and  _155
REMARK   63  A    between atoms: _155  and  _156
REMARK   64  A    between atoms: _159  and  _161
REMARK   65  A    between atoms: _161  and  _162
REMARK   66  A    between atoms: _161  and  _164
REMARK   67  A    between atoms: _164  and  _165
REMARK   68  A    between atoms: _168  and  _170
REMARK   69  A    between atoms: _170  and  _171
REMARK   70  A    between atoms: _170  and  _173
REMARK   71  A    between atoms: _173  and  _174
REMARK   72  A    between atoms: _184  and  _186
REMARK   73  A    between atoms: _186  and  _187
REMARK   74  A    between atoms: _186  and  _189
REMARK   75  A    between atoms: _189  and  _190
REMARK   76  A    between atoms: _193  and  _195
REMARK   77  A    between atoms: _195  and  _196
REMARK   78  A    between atoms: _195  and  _198
REMARK   79  A    between atoms: _198  and  _199
REMARK   80  A    between atoms: _199  and  _200
REMARK   81  A    between atoms: _203  and  _205
REMARK   82  A    between atoms: _205  and  _206
REMARK   83  A    between atoms: _208  and  _210
REMARK   84  A    between atoms: _210  and  _211
REMARK   85  A    between atoms: _210  and  _213
REMARK   86  A    between atoms: _213  and  _214
REMARK   87  A    between atoms: _224  and  _226
REMARK   88  A    between atoms: _226  and  _227
REMARK   89  A    between atoms: _226  and  _229
REMARK   90  A    between atoms: _229  and  _230
REMARK   91  A    between atoms: _240  and  _242
REMARK   92  A    between atoms: _242  and  _243
REMARK   93  A    between atoms: _242  and  _245
REMARK   94  A    between atoms: _245  and  _246
REMARK   95  A    between atoms: _252  and  _254
REMARK   96  A    between atoms: _254  and  _255
REMARK   97  A    between atoms: _254  and  _257
REMARK   98  A    between atoms: _257  and  _258
REMARK   99  A    between atoms: _264  and  _266
REMARK  100  A    between atoms: _266  and  _267
REMARK  101  A    between atoms: _266  and  _269
REMARK  102  A    between atoms: _269  and  _270
REMARK  103  A    between atoms: _275  and  _277
REMARK  104  A    between atoms: _277  and  _278
REMARK  105  A    between atoms: _277  and  _280
REMARK  106  A    between atoms: _280  and  _281
REMARK  107  A    between atoms: _286  and  _288
REMARK  108  A    between atoms: _288  and  _289
REMARK  109  A    between atoms: _288  and  _291
REMARK  110  A    between atoms: _291  and  _292
REMARK  111  A    between atoms: _292  and  _293
REMARK  112  A    between atoms: _296  and  _298
REMARK  113  A    between atoms: _298  and  _299
REMARK  114  A    between atoms: _298  and  _301
REMARK  115  A    between atoms: _301  and  _302
REMARK  116  A    between atoms: _305  and  _307
REMARK  117  A    between atoms: _307  and  _308
REMARK  118  A    between atoms: _307  and  _310
REMARK  119  A    between atoms: _310  and  _311
REMARK  120  A    between atoms: _313  and  _315
REMARK  121  A    between atoms: _315  and  _316
REMARK  122  A    between atoms: _315  and  _318
REMARK  123  A    between atoms: _318  and  _319
REMARK  124  A    between atoms: _319  and  _320
REMARK  125  A    between atoms: _320  and  _321
REMARK  126  A    between atoms: _321  and  _322
REMARK  127  A    between atoms: _326  and  _328
REMARK  128  A    between atoms: _328  and  _329
REMARK  129  A    between atoms: _328  and  _331
REMARK  130  A    between atoms: _331  and  _332
REMARK  131  A    between atoms: _334  and  _336
REMARK  132  A    between atoms: _336  and  _337
REMARK  133  A    between atoms: _339  and  _341
REMARK  134  A    between atoms: _341  and  _342
REMARK  135  A    between atoms: _341  and  _344
REMARK  136  A    between atoms: _344  and  _345
REMARK  137  A    between atoms: _350  and  _351
REMARK  138  A    between atoms: _353  and  _355
REMARK  139  A    between atoms: _355  and  _356
REMARK  140  A    between atoms: _355  and  _358
REMARK  141  A    between atoms: _361  and  _363
REMARK  142  A    between atoms: _363  and  _364
REMARK  143  A    between atoms: _366  and  _368
REMARK  144  A    between atoms: _368  and  _369
REMARK  145  A    between atoms: _368  and  _371
REMARK  146  A    between atoms: _371  and  _372
REMARK  147  A    between atoms: _377  and  _379
REMARK  148  A    between atoms: _379  and  _380
REMARK  149  A    between atoms: _383  and  _385
REMARK  150  A    between atoms: _385  and  _386
REMARK  151  A    between atoms: _385  and  _388
REMARK  152  A    between atoms: _388  and  _389
REMARK  153  A    between atoms: _394  and  _396
REMARK  154  A    between atoms: _396  and  _397
REMARK  155  A    between atoms: _396  and  _399
REMARK  156  A    between atoms: _399  and  _400
REMARK  157  A    between atoms: _400  and  _401
REMARK  158  A    between atoms: _401  and  _402
REMARK  159  A    between atoms: _402  and  CA_598
REMARK  160  A    between atoms: _404  and  _406
REMARK  161  A    between atoms: _406  and  _407
REMARK  162  A    between atoms: _406  and  _409
REMARK  163  A    between atoms: _409  and  _410
REMARK  164  A    between atoms: _410  and  _411
REMARK  165  A    between atoms: _414  and  _416
REMARK  166  A    between atoms: _416  and  _417
REMARK  167  A    between atoms: _416  and  _419
REMARK  168  A    between atoms: _419  and  _420
REMARK  169  A    between atoms: _422  and  _424
REMARK  170  A    between atoms: _424  and  _425
REMARK  171  A    between atoms: _428  and  _430
REMARK  172  A    between atoms: _430  and  _431
REMARK  173  A    between atoms: _430  and  _433
REMARK  174  A    between atoms: _433  and  _434
REMARK  175  A    between atoms: _434  and  _435
REMARK  176  A    between atoms: _435  and  _436
REMARK  177  A    between atoms: _445  and  _447
REMARK  178  A    between atoms: _447  and  _448
REMARK  179  A    between atoms: _450  and  _452
REMARK  180  A    between atoms: _452  and  _453
REMARK  181  A    between atoms: _452  and  _455
REMARK  182  A    between atoms: _455  and  _456
REMARK  183  A    between atoms: _459  and  _461
REMARK  184  A    between atoms: _461  and  _462
REMARK  185  A    between atoms: _461  and  _464
REMARK  186  A    between atoms: _464  and  _465
REMARK  187  A    between atoms: _465  and  _466
REMARK  188  A    between atoms: _469  and  _471
REMARK  189  A    between atoms: _471  and  _472
REMARK  190  A    between atoms: _471  and  _474
REMARK  191  A    between atoms: _474  and  _475
REMARK  192  A    between atoms: _480  and  _481
REMARK  193  A    between atoms: _483  and  _485
REMARK  194  A    between atoms: _485  and  _486
REMARK  195  A    between atoms: _485  and  _488
REMARK  196  A    between atoms: _488  and  _489
REMARK  197  A    between atoms: _489  and  _490
REMARK  198  A    between atoms: _493  and  _495
REMARK  199  A    between atoms: _495  and  _496
REMARK  200  A    between atoms: _495  and  _498
REMARK  201  A    between atoms: _498  and  _499
REMARK  202  A    between atoms: _501  and  _503
REMARK  203  A    between atoms: _503  and  _504
REMARK  204  A    between atoms: _503  and  _506
REMARK  205  A    between atoms: _506  and  _507
REMARK  206  A    between atoms: _513  and  _515
REMARK  207  A    between atoms: _515  and  _516
REMARK  208  A    between atoms: _518  and  _520
REMARK  209  A    between atoms: _520  and  _521
REMARK  210  A    between atoms: _523  and  _525
REMARK  211  A    between atoms: _525  and  _526
REMARK  212  A    between atoms: _525  and  _528
REMARK  213  A    between atoms: _528  and  _529
REMARK  214  A    between atoms: _532  and  _534
REMARK  215  A    between atoms: _534  and  _535
REMARK  216  A    between atoms: _534  and  _537
REMARK  217  A    between atoms: _537  and  _538
REMARK  218  A    between atoms: _541  and  _543
REMARK  219  A    between atoms: _543  and  _544
REMARK  220  A    between atoms: _547  and  _549
REMARK  221  A    between atoms: _549  and  _550
REMARK  222  A    between atoms: _549  and  _552
REMARK  223  A    between atoms: _552  and  _553
REMARK  224  A    between atoms: _558  and  _560
REMARK  225  A    between atoms: _560  and  _561
REMARK  226  A    between atoms: _560  and  _563
REMARK  227  A    between atoms: _563  and  _564
REMARK  228  A    between atoms: _569  and  _571
REMARK  229  A    between atoms: _571  and  _572
REMARK  230  A    between atoms: _571  and  _574
REMARK  231  A    between atoms: _574  and  _575
REMARK  232  A    between atoms: _577  and  _579
REMARK  233  A    between atoms: _579  and  _580
REMARK  234  A    between atoms: _579  and  _582
REMARK  235  A    between atoms: _582  and  _583
REMARK  236  A    between atoms: _583  and  _584
REMARK  237  A    between atoms: _589  and  _591
REMARK  238  A    between atoms: _591  and  _592
REMARK  239  A    between atoms: _591  and  _594
REMARK  240  A    between atoms: _594  and  _595
REMARK  241  A    between atoms: _595  and  _596
REMARK                            x       y       z     vdW  Elec       q    Type
REMARK                         _______ _______ _______ _____ _____    ______ ____
ROOT
ATOM      1  O   HOH     1      21.431  59.517  23.280  0.00  0.00    +0.000 OA
ENDROOT
TORSDOF 0
REMARK  Name = ../refined-set-2016/2zq0/2zq0_pocket.pdb
REMARK  241 active torsions:
REMARK  status: ('A' for Active; 'I' for Inactive)
REMARK    1  A    between atoms: _1  and  _3
REMARK    2  A    between atoms: _3  and  _4
REMARK    3  A    between atoms: _3  and  _6
REMARK    4  A    between atoms: _6  and  _7
REMARK    5  A    between atoms: _10  and  _12
REMARK    6  A    between atoms: _12  and  _13
REMARK    7  A    between atoms: _12  and  _15
REMARK    8  A    between atoms: _15  and  _16
REMARK    9  A    between atoms: _16  and  _17
REMARK   10  A    between atoms: _22  and  _24
REMARK   11  A    between atoms: _24  and  _25
REMARK   12  A    between atoms: _24  and  _27
REMARK   13  A    between atoms: _27  and  _28
REMARK   14  A    between atoms: _28  and  _29
REMARK   15  A    between atoms: _29  and  _31
REMARK   16  A    between atoms: _31  and  CA_598
REMARK   17  A    between atoms: _32  and  _34
REMARK   18  A    between atoms: _34  and  _35
REMARK   19  A    between atoms: _34  and  _37
REMARK   20  A    between atoms: _37  and  _38
REMARK   21  A    between atoms: _42  and  _43
REMARK   22  A    between atoms: _48  and  _50
REMARK   23  A    between atoms: _50  and  _51
REMARK   24  A    between atoms: _50  and  _53
REMARK   25  A    between atoms: _53  and  _54
REMARK   26  A    between atoms: _59  and  _61
REMARK   27  A    between atoms: _61  and  _62
REMARK   28  A    between atoms: _61  and  _64
REMARK   29  A    between atoms: _64  and  _65
REMARK   30  A    between atoms: _67  and  _69
REMARK   31  A    between atoms: _69  and  _70
REMARK   32  A    between atoms: _69  and  _72
REMARK   33  A    between atoms: _72  and  _73
REMARK   34  A    between atoms: _75  and  _77
REMARK   35  A    between atoms: _77  and  _78
REMARK   36  A    between atoms: _77  and  _80
REMARK   37  A    between atoms: _80  and  _81
REMARK   38  A    between atoms: _81  and  _82
REMARK   39  A    between atoms: _87  and  _89
REMARK   40  A    between atoms: _89  and  _90
REMARK   41  A    between atoms: _89  and  _92
REMARK   42  A    between atoms: _92  and  _93
REMARK   43  A    between atoms: _98  and  _99
REMARK   44  A    between atoms: _101  and  _103
REMARK   45  A    between atoms: _103  and  _104
REMARK   46  A    between atoms: _103  and  _106
REMARK   47  A    between atoms: _109  and  _111
REMARK   48  A    between atoms: _111  and  _112
REMARK   49  A    between atoms: _111  and  _114
REMARK   50  A    between atoms: _114  and  _115
REMARK   51  A    between atoms: _125  and  _127
REMARK   52  A    between atoms: _127  and  _128
REMARK   53  A    between atoms: _127  and  _130
REMARK   54  A    between atoms: _130  and  _131
REMARK   55  A    between atoms: _141  and  _143
REMARK   56  A    between atoms: _143  and  _144
REMARK   57  A    between atoms: _143  and  _146
REMARK   58  A    between atoms: _146  and  _147
REMARK   59  A    between atoms: _147  and  _148
REMARK   60  A    between atoms: _150  and  _152
REMARK   61  A    between atoms: _152  and  _153
REMARK   62  A    between atoms: _152  and  _155
REMARK   63  A    between atoms: _155  and  _156
REMARK   64  A    between atoms: _159  and  _161
REMARK   65  A    between atoms: _161  and  _162
REMARK   66  A    between atoms: _161  and  _164
REMARK   67  A    between atoms: _164  and  _165
REMARK   68  A    between atoms: _168  and  _170
REMARK   69  A    between atoms: _170  and  _171
REMARK   70  A    between atoms: _170  and  _173
REMARK   71  A    between atoms: _173  and  _174
REMARK   72  A    between atoms: _184  and  _186
REMARK   73  A    between atoms: _186  and  _187
REMARK   74  A    between atoms: _186  and  _189
REMARK   75  A    between atoms: _189  and  _190
REMARK   76  A    between atoms: _193  and  _195
REMARK   77  A    between atoms: _195  and  _196
REMARK   78  A    between atoms: _195  and  _198
REMARK   79  A    between atoms: _198  and  _199
REMARK   80  A    between atoms: _199  and  _200
REMARK   81  A    between atoms: _203  and  _205
REMARK   82  A    between atoms: _205  and  _206
REMARK   83  A    between atoms: _208  and  _210
REMARK   84  A    between atoms: _210  and  _211
REMARK   85  A    between atoms: _210  and  _213
REMARK   86  A    between atoms: _213  and  _214
REMARK   87  A    between atoms: _224  and  _226
REMARK   88  A    between atoms: _226  and  _227
REMARK   89  A    between atoms: _226  and  _229
REMARK   90  A    between atoms: _229  and  _230
REMARK   91  A    between atoms: _240  and  _242
REMARK   92  A    between atoms: _242  and  _243
REMARK   93  A    between atoms: _242  and  _245
REMARK   94  A    between atoms: _245  and  _246
REMARK   95  A    between atoms: _252  and  _254
REMARK   96  A    between atoms: _254  and  _255
REMARK   97  A    between atoms: _254  and  _257
REMARK   98  A    between atoms: _257  and  _258
REMARK   99  A    between atoms: _264  and  _266
REMARK  100  A    between atoms: _266  and  _267
REMARK  101  A    between atoms: _266  and  _269
REMARK  102  A    between atoms: _269  and  _270
REMARK  103  A    between atoms: _275  and  _277
REMARK  104  A    between atoms: _277  and  _278
REMARK  105  A    between atoms: _277  and  _280
REMARK  106  A    between atoms: _280  and  _281
REMARK  107  A    between atoms: _286  and  _288
REMARK  108  A    between atoms: _288  and  _289
REMARK  109  A    between atoms: _288  and  _291
REMARK  110  A    between atoms: _291  and  _292
REMARK  111  A    between atoms: _292  and  _293
REMARK  112  A    between atoms: _296  and  _298
REMARK  113  A    between atoms: _298  and  _299
REMARK  114  A    between atoms: _298  and  _301
REMARK  115  A    between atoms: _301  and  _302
REMARK  116  A    between atoms: _305  and  _307
REMARK  117  A    between atoms: _307  and  _308
REMARK  118  A    between atoms: _307  and  _310
REMARK  119  A    between atoms: _310  and  _311
REMARK  120  A    between atoms: _313  and  _315
REMARK  121  A    between atoms: _315  and  _316
REMARK  122  A    between atoms: _315  and  _318
REMARK  123  A    between atoms: _318  and  _319
REMARK  124  A    between atoms: _319  and  _320
REMARK  125  A    between atoms: _320  and  _321
REMARK  126  A    between atoms: _321  and  _322
REMARK  127  A    between atoms: _326  and  _328
REMARK  128  A    between atoms: _328  and  _329
REMARK  129  A    between atoms: _328  and  _331
REMARK  130  A    between atoms: _331  and  _332
REMARK  131  A    between atoms: _334  and  _336
REMARK  132  A    between atoms: _336  and  _337
REMARK  133  A    between atoms: _339  and  _341
REMARK  134  A    between atoms: _341  and  _342
REMARK  135  A    between atoms: _341  and  _344
REMARK  136  A    between atoms: _344  and  _345
REMARK  137  A    between atoms: _350  and  _351
REMARK  138  A    between atoms: _353  and  _355
REMARK  139  A    between atoms: _355  and  _356
REMARK  140  A    between atoms: _355  and  _358
REMARK  141  A    between atoms: _361  and  _363
REMARK  142  A    between atoms: _363  and  _364
REMARK  143  A    between atoms: _366  and  _368
REMARK  144  A    between atoms: _368  and  _369
REMARK  145  A    between atoms: _368  and  _371
REMARK  146  A    between atoms: _371  and  _372
REMARK  147  A    between atoms: _377  and  _379
REMARK  148  A    between atoms: _379  and  _380
REMARK  149  A    between atoms: _383  and  _385
REMARK  150  A    between atoms: _385  and  _386
REMARK  151  A    between atoms: _385  and  _388
REMARK  152  A    between atoms: _388  and  _389
REMARK  153  A    between atoms: _394  and  _396
REMARK  154  A    between atoms: _396  and  _397
REMARK  155  A    between atoms: _396  and  _399
REMARK  156  A    between atoms: _399  and  _400
REMARK  157  A    between atoms: _400  and  _401
REMARK  158  A    between atoms: _401  and  _402
REMARK  159  A    between atoms: _402  and  CA_598
REMARK  160  A    between atoms: _404  and  _406
REMARK  161  A    between atoms: _406  and  _407
REMARK  162  A    between atoms: _406  and  _409
REMARK  163  A    between atoms: _409  and  _410
REMARK  164  A    between atoms: _410  and  _411
REMARK  165  A    between atoms: _414  and  _416
REMARK  166  A    between atoms: _416  and  _417
REMARK  167  A    between atoms: _416  and  _419
REMARK  168  A    between atoms: _419  and  _420
REMARK  169  A    between atoms: _422  and  _424
REMARK  170  A    between atoms: _424  and  _425
REMARK  171  A    between atoms: _428  and  _430
REMARK  172  A    between atoms: _430  and  _431
REMARK  173  A    between atoms: _430  and  _433
REMARK  174  A    between atoms: _433  and  _434
REMARK  175  A    between atoms: _434  and  _435
REMARK  176  A    between atoms: _435  and  _436
REMARK  177  A    between atoms: _445  and  _447
REMARK  178  A    between atoms: _447  and  _448
REMARK  179  A    between atoms: _450  and  _452
REMARK  180  A    between atoms: _452  and  _453
REMARK  181  A    between atoms: _452  and  _455
REMARK  182  A    between atoms: _455  and  _456
REMARK  183  A    between atoms: _459  and  _461
REMARK  184  A    between atoms: _461  and  _462
REMARK  185  A    between atoms: _461  and  _464
REMARK  186  A    between atoms: _464  and  _465
REMARK  187  A    between atoms: _465  and  _466
REMARK  188  A    between atoms: _469  and  _471
REMARK  189  A    between atoms: _471  and  _472
REMARK  190  A    between atoms: _471  and  _474
REMARK  191  A    between atoms: _474  and  _475
REMARK  192  A    between atoms: _480  and  _481
REMARK  193  A    between atoms: _483  and  _485
REMARK  194  A    between atoms: _485  and  _486
REMARK  195  A    between atoms: _485  and  _488
REMARK  196  A    between atoms: _488  and  _489
REMARK  197  A    between atoms: _489  and  _490
REMARK  198  A    between atoms: _493  and  _495
REMARK  199  A    between atoms: _495  and  _496
REMARK  200  A    between atoms: _495  and  _498
REMARK  201  A    between atoms: _498  and  _499
REMARK  202  A    between atoms: _501  and  _503
REMARK  203  A    between atoms: _503  and  _504
REMARK  204  A    between atoms: _503  and  _506
REMARK  205  A    between atoms: _506  and  _507
REMARK  206  A    between atoms: _513  and  _515
REMARK  207  A    between atoms: _515  and  _516
REMARK  208  A    between atoms: _518  and  _520
REMARK  209  A    between atoms: _520  and  _521
REMARK  210  A    between atoms: _523  and  _525
REMARK  211  A    between atoms: _525  and  _526
REMARK  212  A    between atoms: _525  and  _528
REMARK  213  A    between atoms: _528  and  _529
REMARK  214  A    between atoms: _532  and  _534
REMARK  215  A    between atoms: _534  and  _535
REMARK  216  A    between atoms: _534  and  _537
REMARK  217  A    between atoms: _537  and  _538
REMARK  218  A    between atoms: _541  and  _543
REMARK  219  A    between atoms: _543  and  _544
REMARK  220  A    between atoms: _547  and  _549
REMARK  221  A    between atoms: _549  and  _550
REMARK  222  A    between atoms: _549  and  _552
REMARK  223  A    between atoms: _552  and  _553
REMARK  224  A    between atoms: _558  and  _560
REMARK  225  A    between atoms: _560  and  _561
REMARK  226  A    between atoms: _560  and  _563
REMARK  227  A    between atoms: _563  and  _564
REMARK  228  A    between atoms: _569  and  _571
REMARK  229  A    between atoms: _571  and  _572
REMARK  230  A    between atoms: _571  and  _574
REMARK  231  A    between atoms: _574  and  _575
REMARK  232  A    between atoms: _577  and  _579
REMARK  233  A    between atoms: _579  and  _580
REMARK  234  A    between atoms: _579  and  _582
REMARK  235  A    between atoms: _582  and  _583
REMARK  236  A    between atoms: _583  and  _584
REMARK  237  A    between atoms: _589  and  _591
REMARK  238  A    between atoms: _591  and  _592
REMARK  239  A    between atoms: _591  and  _594
REMARK  240  A    between atoms: _594  and  _595
REMARK  241  A    between atoms: _595  and  _596
REMARK                            x       y       z     vdW  Elec       q    Type
REMARK                         _______ _______ _______ _____ _____    ______ ____
ROOT
ATOM      1  O   HOH     1      23.459  52.100  41.682  0.00  0.00    +0.000 OA
ENDROOT
TORSDOF 0
REMARK  Name = ../refined-set-2016/2zq0/2zq0_pocket.pdb
REMARK  241 active torsions:
REMARK  status: ('A' for Active; 'I' for Inactive)
REMARK    1  A    between atoms: _1  and  _3
REMARK    2  A    between atoms: _3  and  _4
REMARK    3  A    between atoms: _3  and  _6
REMARK    4  A    between atoms: _6  and  _7
REMARK    5  A    between atoms: _10  and  _12
REMARK    6  A    between atoms: _12  and  _13
REMARK    7  A    between atoms: _12  and  _15
REMARK    8  A    between atoms: _15  and  _16
REMARK    9  A    between atoms: _16  and  _17
REMARK   10  A    between atoms: _22  and  _24
REMARK   11  A    between atoms: _24  and  _25
REMARK   12  A    between atoms: _24  and  _27
REMARK   13  A    between atoms: _27  and  _28
REMARK   14  A    between atoms: _28  and  _29
REMARK   15  A    between atoms: _29  and  _31
REMARK   16  A    between atoms: _31  and  CA_598
REMARK   17  A    between atoms: _32  and  _34
REMARK   18  A    between atoms: _34  and  _35
REMARK   19  A    between atoms: _34  and  _37
REMARK   20  A    between atoms: _37  and  _38
REMARK   21  A    between atoms: _42  and  _43
REMARK   22  A    between atoms: _48  and  _50
REMARK   23  A    between atoms: _50  and  _51
REMARK   24  A    between atoms: _50  and  _53
REMARK   25  A    between atoms: _53  and  _54
REMARK   26  A    between atoms: _59  and  _61
REMARK   27  A    between atoms: _61  and  _62
REMARK   28  A    between atoms: _61  and  _64
REMARK   29  A    between atoms: _64  and  _65
REMARK   30  A    between atoms: _67  and  _69
REMARK   31  A    between atoms: _69  and  _70
REMARK   32  A    between atoms: _69  and  _72
REMARK   33  A    between atoms: _72  and  _73
REMARK   34  A    between atoms: _75  and  _77
REMARK   35  A    between atoms: _77  and  _78
REMARK   36  A    between atoms: _77  and  _80
REMARK   37  A    between atoms: _80  and  _81
REMARK   38  A    between atoms: _81  and  _82
REMARK   39  A    between atoms: _87  and  _89
REMARK   40  A    between atoms: _89  and  _90
REMARK   41  A    between atoms: _89  and  _92
REMARK   42  A    between atoms: _92  and  _93
REMARK   43  A    between atoms: _98  and  _99
REMARK   44  A    between atoms: _101  and  _103
REMARK   45  A    between atoms: _103  and  _104
REMARK   46  A    between atoms: _103  and  _106
REMARK   47  A    between atoms: _109  and  _111
REMARK   48  A    between atoms: _111  and  _112
REMARK   49  A    between atoms: _111  and  _114
REMARK   50  A    between atoms: _114  and  _115
REMARK   51  A    between atoms: _125  and  _127
REMARK   52  A    between atoms: _127  and  _128
REMARK   53  A    between atoms: _127  and  _130
REMARK   54  A    between atoms: _130  and  _131
REMARK   55  A    between atoms: _141  and  _143
REMARK   56  A    between atoms: _143  and  _144
REMARK   57  A    between atoms: _143  and  _146
REMARK   58  A    between atoms: _146  and  _147
REMARK   59  A    between atoms: _147  and  _148
REMARK   60  A    between atoms: _150  and  _152
REMARK   61  A    between atoms: _152  and  _153
REMARK   62  A    between atoms: _152  and  _155
REMARK   63  A    between atoms: _155  and  _156
REMARK   64  A    between atoms: _159  and  _161
REMARK   65  A    between atoms: _161  and  _162
REMARK   66  A    between atoms: _161  and  _164
REMARK   67  A    between atoms: _164  and  _165
REMARK   68  A    between atoms: _168  and  _170
REMARK   69  A    between atoms: _170  and  _171
REMARK   70  A    between atoms: _170  and  _173
REMARK   71  A    between atoms: _173  and  _174
REMARK   72  A    between atoms: _184  and  _186
REMARK   73  A    between atoms: _186  and  _187
REMARK   74  A    between atoms: _186  and  _189
REMARK   75  A    between atoms: _189  and  _190
REMARK   76  A    between atoms: _193  and  _195
REMARK   77  A    between atoms: _195  and  _196
REMARK   78  A    between atoms: _195  and  _198
REMARK   79  A    between atoms: _198  and  _199
REMARK   80  A    between atoms: _199  and  _200
REMARK   81  A    between atoms: _203  and  _205
REMARK   82  A    between atoms: _205  and  _206
REMARK   83  A    between atoms: _208  and  _210
REMARK   84  A    between atoms: _210  and  _211
REMARK   85  A    between atoms: _210  and  _213
REMARK   86  A    between atoms: _213  and  _214
REMARK   87  A    between atoms: _224  and  _226
REMARK   88  A    between atoms: _226  and  _227
REMARK   89  A    between atoms: _226  and  _229
REMARK   90  A    between atoms: _229  and  _230
REMARK   91  A    between atoms: _240  and  _242
REMARK   92  A    between atoms: _242  and  _243
REMARK   93  A    between atoms: _242  and  _245
REMARK   94  A    between atoms: _245  and  _246
REMARK   95  A    between atoms: _252  and  _254
REMARK   96  A    between atoms: _254  and  _255
REMARK   97  A    between atoms: _254  and  _257
REMARK   98  A    between atoms: _257  and  _258
REMARK   99  A    between atoms: _264  and  _266
REMARK  100  A    between atoms: _266  and  _267
REMARK  101  A    between atoms: _266  and  _269
REMARK  102  A    between atoms: _269  and  _270
REMARK  103  A    between atoms: _275  and  _277
REMARK  104  A    between atoms: _277  and  _278
REMARK  105  A    between atoms: _277  and  _280
REMARK  106  A    between atoms: _280  and  _281
REMARK  107  A    between atoms: _286  and  _288
REMARK  108  A    between atoms: _288  and  _289
REMARK  109  A    between atoms: _288  and  _291
REMARK  110  A    between atoms: _291  and  _292
REMARK  111  A    between atoms: _292  and  _293
REMARK  112  A    between atoms: _296  and  _298
REMARK  113  A    between atoms: _298  and  _299
REMARK  114  A    between atoms: _298  and  _301
REMARK  115  A    between atoms: _301  and  _302
REMARK  116  A    between atoms: _305  and  _307
REMARK  117  A    between atoms: _307  and  _308
REMARK  118  A    between atoms: _307  and  _310
REMARK  119  A    between atoms: _310  and  _311
REMARK  120  A    between atoms: _313  and  _315
REMARK  121  A    between atoms: _315  and  _316
REMARK  122  A    between atoms: _315  and  _318
REMARK  123  A    between atoms: _318  and  _319
REMARK  124  A    between atoms: _319  and  _320
REMARK  125  A    between atoms: _320  and  _321
REMARK  126  A    between atoms: _321  and  _322
REMARK  127  A    between atoms: _326  and  _328
REMARK  128  A    between atoms: _328  and  _329
REMARK  129  A    between atoms: _328  and  _331
REMARK  130  A    between atoms: _331  and  _332
REMARK  131  A    between atoms: _334  and  _336
REMARK  132  A    between atoms: _336  and  _337
REMARK  133  A    between atoms: _339  and  _341
REMARK  134  A    between atoms: _341  and  _342
REMARK  135  A    between atoms: _341  and  _344
REMARK  136  A    between atoms: _344  and  _345
REMARK  137  A    between atoms: _350  and  _351
REMARK  138  A    between atoms: _353  and  _355
REMARK  139  A    between atoms: _355  and  _356
REMARK  140  A    between atoms: _355  and  _358
REMARK  141  A    between atoms: _361  and  _363
REMARK  142  A    between atoms: _363  and  _364
REMARK  143  A    between atoms: _366  and  _368
REMARK  144  A    between atoms: _368  and  _369
REMARK  145  A    between atoms: _368  and  _371
REMARK  146  A    between atoms: _371  and  _372
REMARK  147  A    between atoms: _377  and  _379
REMARK  148  A    between atoms: _379  and  _380
REMARK  149  A    between atoms: _383  and  _385
REMARK  150  A    between atoms: _385  and  _386
REMARK  151  A    between atoms: _385  and  _388
REMARK  152  A    between atoms: _388  and  _389
REMARK  153  A    between atoms: _394  and  _396
REMARK  154  A    between atoms: _396  and  _397
REMARK  155  A    between atoms: _396  and  _399
REMARK  156  A    between atoms: _399  and  _400
REMARK  157  A    between atoms: _400  and  _401
REMARK  158  A    between atoms: _401  and  _402
REMARK  159  A    between atoms: _402  and  CA_598
REMARK  160  A    between atoms: _404  and  _406
REMARK  161  A    between atoms: _406  and  _407
REMARK  162  A    between atoms: _406  and  _409
REMARK  163  A    between atoms: _409  and  _410
REMARK  164  A    between atoms: _410  and  _411
REMARK  165  A    between atoms: _414  and  _416
REMARK  166  A    between atoms: _416  and  _417
REMARK  167  A    between atoms: _416  and  _419
REMARK  168  A    between atoms: _419  and  _420
REMARK  169  A    between atoms: _422  and  _424
REMARK  170  A    between atoms: _424  and  _425
REMARK  171  A    between atoms: _428  and  _430
REMARK  172  A    between atoms: _430  and  _431
REMARK  173  A    between atoms: _430  and  _433
REMARK  174  A    between atoms: _433  and  _434
REMARK  175  A    between atoms: _434  and  _435
REMARK  176  A    between atoms: _435  and  _436
REMARK  177  A    between atoms: _445  and  _447
REMARK  178  A    between atoms: _447  and  _448
REMARK  179  A    between atoms: _450  and  _452
REMARK  180  A    between atoms: _452  and  _453
REMARK  181  A    between atoms: _452  and  _455
REMARK  182  A    between atoms: _455  and  _456
REMARK  183  A    between atoms: _459  and  _461
REMARK  184  A    between atoms: _461  and  _462
REMARK  185  A    between atoms: _461  and  _464
REMARK  186  A    between atoms: _464  and  _465
REMARK  187  A    between atoms: _465  and  _466
REMARK  188  A    between atoms: _469  and  _471
REMARK  189  A    between atoms: _471  and  _472
REMARK  190  A    between atoms: _471  and  _474
REMARK  191  A    between atoms: _474  and  _475
REMARK  192  A    between atoms: _480  and  _481
REMARK  193  A    between atoms: _483  and  _485
REMARK  194  A    between atoms: _485  and  _486
REMARK  195  A    between atoms: _485  and  _488
REMARK  196  A    between atoms: _488  and  _489
REMARK  197  A    between atoms: _489  and  _490
REMARK  198  A    between atoms: _493  and  _495
REMARK  199  A    between atoms: _495  and  _496
REMARK  200  A    between atoms: _495  and  _498
REMARK  201  A    between atoms: _498  and  _499
REMARK  202  A    between atoms: _501  and  _503
REMARK  203  A    between atoms: _503  and  _504
REMARK  204  A    between atoms: _503  and  _506
REMARK  205  A    between atoms: _506  and  _507
REMARK  206  A    between atoms: _513  and  _515
REMARK  207  A    between atoms: _515  and  _516
REMARK  208  A    between atoms: _518  and  _520
REMARK  209  A    between atoms: _520  and  _521
REMARK  210  A    between atoms: _523  and  _525
REMARK  211  A    between atoms: _525  and  _526
REMARK  212  A    between atoms: _525  and  _528
REMARK  213  A    between atoms: _528  and  _529
REMARK  214  A    between atoms: _532  and  _534
REMARK  215  A    between atoms: _534  and  _535
REMARK  216  A    between atoms: _534  and  _537
REMARK  217  A    between atoms: _537  and  _538
REMARK  218  A    between atoms: _541  and  _543
REMARK  219  A    between atoms: _543  and  _544
REMARK  220  A    between atoms: _547  and  _549
REMARK  221  A    between atoms: _549  and  _550
REMARK  222  A    between atoms: _549  and  _552
REMARK  223  A    between atoms: _552  and  _553
REMARK  224  A    between atoms: _558  and  _560
REMARK  225  A    between atoms: _560  and  _561
REMARK  226  A    between atoms: _560  and  _563
REMARK  227  A    between atoms: _563  and  _564
REMARK  228  A    between atoms: _569  and  _571
REMARK  229  A    between atoms: _571  and  _572
REMARK  230  A    between atoms: _571  and  _574
REMARK  231  A    between atoms: _574  and  _575
REMARK  232  A    between atoms: _577  and  _579
REMARK  233  A    between atoms: _579  and  _580
REMARK  234  A    between atoms: _579  and  _582
REMARK  235  A    between atoms: _582  and  _583
REMARK  236  A    between atoms: _583  and  _584
REMARK  237  A    between atoms: _589  and  _591
REMARK  238  A    between atoms: _591  and  _592
REMARK  239  A    between atoms: _591  and  _594
REMARK  240  A    between atoms: _594  and  _595
REMARK  241  A    between atoms: _595  and  _596
REMARK                            x       y       z     vdW  Elec       q    Type
REMARK                         _______ _______ _______ _____ _____    ______ ____
ROOT
ATOM      1  O   HOH     1      27.225  60.660  39.651  0.00  0.00    +0.000 OA
ENDROOT
TORSDOF 0
REMARK  Name = ../refined-set-2016/2zq0/2zq0_pocket.pdb
REMARK  241 active torsions:
REMARK  status: ('A' for Active; 'I' for Inactive)
REMARK    1  A    between atoms: _1  and  _3
REMARK    2  A    between atoms: _3  and  _4
REMARK    3  A    between atoms: _3  and  _6
REMARK    4  A    between atoms: _6  and  _7
REMARK    5  A    between atoms: _10  and  _12
REMARK    6  A    between atoms: _12  and  _13
REMARK    7  A    between atoms: _12  and  _15
REMARK    8  A    between atoms: _15  and  _16
REMARK    9  A    between atoms: _16  and  _17
REMARK   10  A    between atoms: _22  and  _24
REMARK   11  A    between atoms: _24  and  _25
REMARK   12  A    between atoms: _24  and  _27
REMARK   13  A    between atoms: _27  and  _28
REMARK   14  A    between atoms: _28  and  _29
REMARK   15  A    between atoms: _29  and  _31
REMARK   16  A    between atoms: _31  and  CA_598
REMARK   17  A    between atoms: _32  and  _34
REMARK   18  A    between atoms: _34  and  _35
REMARK   19  A    between atoms: _34  and  _37
REMARK   20  A    between atoms: _37  and  _38
REMARK   21  A    between atoms: _42  and  _43
REMARK   22  A    between atoms: _48  and  _50
REMARK   23  A    between atoms: _50  and  _51
REMARK   24  A    between atoms: _50  and  _53
REMARK   25  A    between atoms: _53  and  _54
REMARK   26  A    between atoms: _59  and  _61
REMARK   27  A    between atoms: _61  and  _62
REMARK   28  A    between atoms: _61  and  _64
REMARK   29  A    between atoms: _64  and  _65
REMARK   30  A    between atoms: _67  and  _69
REMARK   31  A    between atoms: _69  and  _70
REMARK   32  A    between atoms: _69  and  _72
REMARK   33  A    between atoms: _72  and  _73
REMARK   34  A    between atoms: _75  and  _77
REMARK   35  A    between atoms: _77  and  _78
REMARK   36  A    between atoms: _77  and  _80
REMARK   37  A    between atoms: _80  and  _81
REMARK   38  A    between atoms: _81  and  _82
REMARK   39  A    between atoms: _87  and  _89
REMARK   40  A    between atoms: _89  and  _90
REMARK   41  A    between atoms: _89  and  _92
REMARK   42  A    between atoms: _92  and  _93
REMARK   43  A    between atoms: _98  and  _99
REMARK   44  A    between atoms: _101  and  _103
REMARK   45  A    between atoms: _103  and  _104
REMARK   46  A    between atoms: _103  and  _106
REMARK   47  A    between atoms: _109  and  _111
REMARK   48  A    between atoms: _111  and  _112
REMARK   49  A    between atoms: _111  and  _114
REMARK   50  A    between atoms: _114  and  _115
REMARK   51  A    between atoms: _125  and  _127
REMARK   52  A    between atoms: _127  and  _128
REMARK   53  A    between atoms: _127  and  _130
REMARK   54  A    between atoms: _130  and  _131
REMARK   55  A    between atoms: _141  and  _143
REMARK   56  A    between atoms: _143  and  _144
REMARK   57  A    between atoms: _143  and  _146
REMARK   58  A    between atoms: _146  and  _147
REMARK   59  A    between atoms: _147  and  _148
REMARK   60  A    between atoms: _150  and  _152
REMARK   61  A    between atoms: _152  and  _153
REMARK   62  A    between atoms: _152  and  _155
REMARK   63  A    between atoms: _155  and  _156
REMARK   64  A    between atoms: _159  and  _161
REMARK   65  A    between atoms: _161  and  _162
REMARK   66  A    between atoms: _161  and  _164
REMARK   67  A    between atoms: _164  and  _165
REMARK   68  A    between atoms: _168  and  _170
REMARK   69  A    between atoms: _170  and  _171
REMARK   70  A    between atoms: _170  and  _173
REMARK   71  A    between atoms: _173  and  _174
REMARK   72  A    between atoms: _184  and  _186
REMARK   73  A    between atoms: _186  and  _187
REMARK   74  A    between atoms: _186  and  _189
REMARK   75  A    between atoms: _189  and  _190
REMARK   76  A    between atoms: _193  and  _195
REMARK   77  A    between atoms: _195  and  _196
REMARK   78  A    between atoms: _195  and  _198
REMARK   79  A    between atoms: _198  and  _199
REMARK   80  A    between atoms: _199  and  _200
REMARK   81  A    between atoms: _203  and  _205
REMARK   82  A    between atoms: _205  and  _206
REMARK   83  A    between atoms: _208  and  _210
REMARK   84  A    between atoms: _210  and  _211
REMARK   85  A    between atoms: _210  and  _213
REMARK   86  A    between atoms: _213  and  _214
REMARK   87  A    between atoms: _224  and  _226
REMARK   88  A    between atoms: _226  and  _227
REMARK   89  A    between atoms: _226  and  _229
REMARK   90  A    between atoms: _229  and  _230
REMARK   91  A    between atoms: _240  and  _242
REMARK   92  A    between atoms: _242  and  _243
REMARK   93  A    between atoms: _242  and  _245
REMARK   94  A    between atoms: _245  and  _246
REMARK   95  A    between atoms: _252  and  _254
REMARK   96  A    between atoms: _254  and  _255
REMARK   97  A    between atoms: _254  and  _257
REMARK   98  A    between atoms: _257  and  _258
REMARK   99  A    between atoms: _264  and  _266
REMARK  100  A    between atoms: _266  and  _267
REMARK  101  A    between atoms: _266  and  _269
REMARK  102  A    between atoms: _269  and  _270
REMARK  103  A    between atoms: _275  and  _277
REMARK  104  A    between atoms: _277  and  _278
REMARK  105  A    between atoms: _277  and  _280
REMARK  106  A    between atoms: _280  and  _281
REMARK  107  A    between atoms: _286  and  _288
REMARK  108  A    between atoms: _288  and  _289
REMARK  109  A    between atoms: _288  and  _291
REMARK  110  A    between atoms: _291  and  _292
REMARK  111  A    between atoms: _292  and  _293
REMARK  112  A    between atoms: _296  and  _298
REMARK  113  A    between atoms: _298  and  _299
REMARK  114  A    between atoms: _298  and  _301
REMARK  115  A    between atoms: _301  and  _302
REMARK  116  A    between atoms: _305  and  _307
REMARK  117  A    between atoms: _307  and  _308
REMARK  118  A    between atoms: _307  and  _310
REMARK  119  A    between atoms: _310  and  _311
REMARK  120  A    between atoms: _313  and  _315
REMARK  121  A    between atoms: _315  and  _316
REMARK  122  A    between atoms: _315  and  _318
REMARK  123  A    between atoms: _318  and  _319
REMARK  124  A    between atoms: _319  and  _320
REMARK  125  A    between atoms: _320  and  _321
REMARK  126  A    between atoms: _321  and  _322
REMARK  127  A    between atoms: _326  and  _328
REMARK  128  A    between atoms: _328  and  _329
REMARK  129  A    between atoms: _328  and  _331
REMARK  130  A    between atoms: _331  and  _332
REMARK  131  A    between atoms: _334  and  _336
REMARK  132  A    between atoms: _336  and  _337
REMARK  133  A    between atoms: _339  and  _341
REMARK  134  A    between atoms: _341  and  _342
REMARK  135  A    between atoms: _341  and  _344
REMARK  136  A    between atoms: _344  and  _345
REMARK  137  A    between atoms: _350  and  _351
REMARK  138  A    between atoms: _353  and  _355
REMARK  139  A    between atoms: _355  and  _356
REMARK  140  A    between atoms: _355  and  _358
REMARK  141  A    between atoms: _361  and  _363
REMARK  142  A    between atoms: _363  and  _364
REMARK  143  A    between atoms: _366  and  _368
REMARK  144  A    between atoms: _368  and  _369
REMARK  145  A    between atoms: _368  and  _371
REMARK  146  A    between atoms: _371  and  _372
REMARK  147  A    between atoms: _377  and  _379
REMARK  148  A    between atoms: _379  and  _380
REMARK  149  A    between atoms: _383  and  _385
REMARK  150  A    between atoms: _385  and  _386
REMARK  151  A    between atoms: _385  and  _388
REMARK  152  A    between atoms: _388  and  _389
REMARK  153  A    between atoms: _394  and  _396
REMARK  154  A    between atoms: _396  and  _397
REMARK  155  A    between atoms: _396  and  _399
REMARK  156  A    between atoms: _399  and  _400
REMARK  157  A    between atoms: _400  and  _401
REMARK  158  A    between atoms: _401  and  _402
REMARK  159  A    between atoms: _402  and  CA_598
REMARK  160  A    between atoms: _404  and  _406
REMARK  161  A    between atoms: _406  and  _407
REMARK  162  A    between atoms: _406  and  _409
REMARK  163  A    between atoms: _409  and  _410
REMARK  164  A    between atoms: _410  and  _411
REMARK  165  A    between atoms: _414  and  _416
REMARK  166  A    between atoms: _416  and  _417
REMARK  167  A    between atoms: _416  and  _419
REMARK  168  A    between atoms: _419  and  _420
REMARK  169  A    between atoms: _422  and  _424
REMARK  170  A    between atoms: _424  and  _425
REMARK  171  A    between atoms: _428  and  _430
REMARK  172  A    between atoms: _430  and  _431
REMARK  173  A    between atoms: _430  and  _433
REMARK  174  A    between atoms: _433  and  _434
REMARK  175  A    between atoms: _434  and  _435
REMARK  176  A    between atoms: _435  and  _436
REMARK  177  A    between atoms: _445  and  _447
REMARK  178  A    between atoms: _447  and  _448
REMARK  179  A    between atoms: _450  and  _452
REMARK  180  A    between atoms: _452  and  _453
REMARK  181  A    between atoms: _452  and  _455
REMARK  182  A    between atoms: _455  and  _456
REMARK  183  A    between atoms: _459  and  _461
REMARK  184  A    between atoms: _461  and  _462
REMARK  185  A    between atoms: _461  and  _464
REMARK  186  A    between atoms: _464  and  _465
REMARK  187  A    between atoms: _465  and  _466
REMARK  188  A    between atoms: _469  and  _471
REMARK  189  A    between atoms: _471  and  _472
REMARK  190  A    between atoms: _471  and  _474
REMARK  191  A    between atoms: _474  and  _475
REMARK  192  A    between atoms: _480  and  _481
REMARK  193  A    between atoms: _483  and  _485
REMARK  194  A    between atoms: _485  and  _486
REMARK  195  A    between atoms: _485  and  _488
REMARK  196  A    between atoms: _488  and  _489
REMARK  197  A    between atoms: _489  and  _490
REMARK  198  A    between atoms: _493  and  _495
REMARK  199  A    between atoms: _495  and  _496
REMARK  200  A    between atoms: _495  and  _498
REMARK  201  A    between atoms: _498  and  _499
REMARK  202  A    between atoms: _501  and  _503
REMARK  203  A    between atoms: _503  and  _504
REMARK  204  A    between atoms: _503  and  _506
REMARK  205  A    between atoms: _506  and  _507
REMARK  206  A    between atoms: _513  and  _515
REMARK  207  A    between atoms: _515  and  _516
REMARK  208  A    between atoms: _518  and  _520
REMARK  209  A    between atoms: _520  and  _521
REMARK  210  A    between atoms: _523  and  _525
REMARK  211  A    between atoms: _525  and  _526
REMARK  212  A    between atoms: _525  and  _528
REMARK  213  A    between atoms: _528  and  _529
REMARK  214  A    between atoms: _532  and  _534
REMARK  215  A    between atoms: _534  and  _535
REMARK  216  A    between atoms: _534  and  _537
REMARK  217  A    between atoms: _537  and  _538
REMARK  218  A    between atoms: _541  and  _543
REMARK  219  A    between atoms: _543  and  _544
REMARK  220  A    between atoms: _547  and  _549
REMARK  221  A    between atoms: _549  and  _550
REMARK  222  A    between atoms: _549  and  _552
REMARK  223  A    between atoms: _552  and  _553
REMARK  224  A    between atoms: _558  and  _560
REMARK  225  A    between atoms: _560  and  _561
REMARK  226  A    between atoms: _560  and  _563
REMARK  227  A    between atoms: _563  and  _564
REMARK  228  A    between atoms: _569  and  _571
REMARK  229  A    between atoms: _571  and  _572
REMARK  230  A    between atoms: _571  and  _574
REMARK  231  A    between atoms: _574  and  _575
REMARK  232  A    between atoms: _577  and  _579
REMARK  233  A    between atoms: _579  and  _580
REMARK  234  A    between atoms: _579  and  _582
REMARK  235  A    between atoms: _582  and  _583
REMARK  236  A    between atoms: _583  and  _584
REMARK  237  A    between atoms: _589  and  _591
REMARK  238  A    between atoms: _591  and  _592
REMARK  239  A    between atoms: _591  and  _594
REMARK  240  A    between atoms: _594  and  _595
REMARK  241  A    between atoms: _595  and  _596
REMARK                            x       y       z     vdW  Elec       q    Type
REMARK                         _______ _______ _______ _____ _____    ______ ____
ROOT
ATOM      1  O   HOH     1      27.761  62.660  30.455  0.00  0.00    +0.000 OA
ENDROOT
TORSDOF 0
REMARK  Name = ../refined-set-2016/2zq0/2zq0_pocket.pdb
REMARK  241 active torsions:
REMARK  status: ('A' for Active; 'I' for Inactive)
REMARK    1  A    between atoms: _1  and  _3
REMARK    2  A    between atoms: _3  and  _4
REMARK    3  A    between atoms: _3  and  _6
REMARK    4  A    between atoms: _6  and  _7
REMARK    5  A    between atoms: _10  and  _12
REMARK    6  A    between atoms: _12  and  _13
REMARK    7  A    between atoms: _12  and  _15
REMARK    8  A    between atoms: _15  and  _16
REMARK    9  A    between atoms: _16  and  _17
REMARK   10  A    between atoms: _22  and  _24
REMARK   11  A    between atoms: _24  and  _25
REMARK   12  A    between atoms: _24  and  _27
REMARK   13  A    between atoms: _27  and  _28
REMARK   14  A    between atoms: _28  and  _29
REMARK   15  A    between atoms: _29  and  _31
REMARK   16  A    between atoms: _31  and  CA_598
REMARK   17  A    between atoms: _32  and  _34
REMARK   18  A    between atoms: _34  and  _35
REMARK   19  A    between atoms: _34  and  _37
REMARK   20  A    between atoms: _37  and  _38
REMARK   21  A    between atoms: _42  and  _43
REMARK   22  A    between atoms: _48  and  _50
REMARK   23  A    between atoms: _50  and  _51
REMARK   24  A    between atoms: _50  and  _53
REMARK   25  A    between atoms: _53  and  _54
REMARK   26  A    between atoms: _59  and  _61
REMARK   27  A    between atoms: _61  and  _62
REMARK   28  A    between atoms: _61  and  _64
REMARK   29  A    between atoms: _64  and  _65
REMARK   30  A    between atoms: _67  and  _69
REMARK   31  A    between atoms: _69  and  _70
REMARK   32  A    between atoms: _69  and  _72
REMARK   33  A    between atoms: _72  and  _73
REMARK   34  A    between atoms: _75  and  _77
REMARK   35  A    between atoms: _77  and  _78
REMARK   36  A    between atoms: _77  and  _80
REMARK   37  A    between atoms: _80  and  _81
REMARK   38  A    between atoms: _81  and  _82
REMARK   39  A    between atoms: _87  and  _89
REMARK   40  A    between atoms: _89  and  _90
REMARK   41  A    between atoms: _89  and  _92
REMARK   42  A    between atoms: _92  and  _93
REMARK   43  A    between atoms: _98  and  _99
REMARK   44  A    between atoms: _101  and  _103
REMARK   45  A    between atoms: _103  and  _104
REMARK   46  A    between atoms: _103  and  _106
REMARK   47  A    between atoms: _109  and  _111
REMARK   48  A    between atoms: _111  and  _112
REMARK   49  A    between atoms: _111  and  _114
REMARK   50  A    between atoms: _114  and  _115
REMARK   51  A    between atoms: _125  and  _127
REMARK   52  A    between atoms: _127  and  _128
REMARK   53  A    between atoms: _127  and  _130
REMARK   54  A    between atoms: _130  and  _131
REMARK   55  A    between atoms: _141  and  _143
REMARK   56  A    between atoms: _143  and  _144
REMARK   57  A    between atoms: _143  and  _146
REMARK   58  A    between atoms: _146  and  _147
REMARK   59  A    between atoms: _147  and  _148
REMARK   60  A    between atoms: _150  and  _152
REMARK   61  A    between atoms: _152  and  _153
REMARK   62  A    between atoms: _152  and  _155
REMARK   63  A    between atoms: _155  and  _156
REMARK   64  A    between atoms: _159  and  _161
REMARK   65  A    between atoms: _161  and  _162
REMARK   66  A    between atoms: _161  and  _164
REMARK   67  A    between atoms: _164  and  _165
REMARK   68  A    between atoms: _168  and  _170
REMARK   69  A    between atoms: _170  and  _171
REMARK   70  A    between atoms: _170  and  _173
REMARK   71  A    between atoms: _173  and  _174
REMARK   72  A    between atoms: _184  and  _186
REMARK   73  A    between atoms: _186  and  _187
REMARK   74  A    between atoms: _186  and  _189
REMARK   75  A    between atoms: _189  and  _190
REMARK   76  A    between atoms: _193  and  _195
REMARK   77  A    between atoms: _195  and  _196
REMARK   78  A    between atoms: _195  and  _198
REMARK   79  A    between atoms: _198  and  _199
REMARK   80  A    between atoms: _199  and  _200
REMARK   81  A    between atoms: _203  and  _205
REMARK   82  A    between atoms: _205  and  _206
REMARK   83  A    between atoms: _208  and  _210
REMARK   84  A    between atoms: _210  and  _211
REMARK   85  A    between atoms: _210  and  _213
REMARK   86  A    between atoms: _213  and  _214
REMARK   87  A    between atoms: _224  and  _226
REMARK   88  A    between atoms: _226  and  _227
REMARK   89  A    between atoms: _226  and  _229
REMARK   90  A    between atoms: _229  and  _230
REMARK   91  A    between atoms: _240  and  _242
REMARK   92  A    between atoms: _242  and  _243
REMARK   93  A    between atoms: _242  and  _245
REMARK   94  A    between atoms: _245  and  _246
REMARK   95  A    between atoms: _252  and  _254
REMARK   96  A    between atoms: _254  and  _255
REMARK   97  A    between atoms: _254  and  _257
REMARK   98  A    between atoms: _257  and  _258
REMARK   99  A    between atoms: _264  and  _266
REMARK  100  A    between atoms: _266  and  _267
REMARK  101  A    between atoms: _266  and  _269
REMARK  102  A    between atoms: _269  and  _270
REMARK  103  A    between atoms: _275  and  _277
REMARK  104  A    between atoms: _277  and  _278
REMARK  105  A    between atoms: _277  and  _280
REMARK  106  A    between atoms: _280  and  _281
REMARK  107  A    between atoms: _286  and  _288
REMARK  108  A    between atoms: _288  and  _289
REMARK  109  A    between atoms: _288  and  _291
REMARK  110  A    between atoms: _291  and  _292
REMARK  111  A    between atoms: _292  and  _293
REMARK  112  A    between atoms: _296  and  _298
REMARK  113  A    between atoms: _298  and  _299
REMARK  114  A    between atoms: _298  and  _301
REMARK  115  A    between atoms: _301  and  _302
REMARK  116  A    between atoms: _305  and  _307
REMARK  117  A    between atoms: _307  and  _308
REMARK  118  A    between atoms: _307  and  _310
REMARK  119  A    between atoms: _310  and  _311
REMARK  120  A    between atoms: _313  and  _315
REMARK  121  A    between atoms: _315  and  _316
REMARK  122  A    between atoms: _315  and  _318
REMARK  123  A    between atoms: _318  and  _319
REMARK  124  A    between atoms: _319  and  _320
REMARK  125  A    between atoms: _320  and  _321
REMARK  126  A    between atoms: _321  and  _322
REMARK  127  A    between atoms: _326  and  _328
REMARK  128  A    between atoms: _328  and  _329
REMARK  129  A    between atoms: _328  and  _331
REMARK  130  A    between atoms: _331  and  _332
REMARK  131  A    between atoms: _334  and  _336
REMARK  132  A    between atoms: _336  and  _337
REMARK  133  A    between atoms: _339  and  _341
REMARK  134  A    between atoms: _341  and  _342
REMARK  135  A    between atoms: _341  and  _344
REMARK  136  A    between atoms: _344  and  _345
REMARK  137  A    between atoms: _350  and  _351
REMARK  138  A    between atoms: _353  and  _355
REMARK  139  A    between atoms: _355  and  _356
REMARK  140  A    between atoms: _355  and  _358
REMARK  141  A    between atoms: _361  and  _363
REMARK  142  A    between atoms: _363  and  _364
REMARK  143  A    between atoms: _366  and  _368
REMARK  144  A    between atoms: _368  and  _369
REMARK  145  A    between atoms: _368  and  _371
REMARK  146  A    between atoms: _371  and  _372
REMARK  147  A    between atoms: _377  and  _379
REMARK  148  A    between atoms: _379  and  _380
REMARK  149  A    between atoms: _383  and  _385
REMARK  150  A    between atoms: _385  and  _386
REMARK  151  A    between atoms: _385  and  _388
REMARK  152  A    between atoms: _388  and  _389
REMARK  153  A    between atoms: _394  and  _396
REMARK  154  A    between atoms: _396  and  _397
REMARK  155  A    between atoms: _396  and  _399
REMARK  156  A    between atoms: _399  and  _400
REMARK  157  A    between atoms: _400  and  _401
REMARK  158  A    between atoms: _401  and  _402
REMARK  159  A    between atoms: _402  and  CA_598
REMARK  160  A    between atoms: _404  and  _406
REMARK  161  A    between atoms: _406  and  _407
REMARK  162  A    between atoms: _406  and  _409
REMARK  163  A    between atoms: _409  and  _410
REMARK  164  A    between atoms: _410  and  _411
REMARK  165  A    between atoms: _414  and  _416
REMARK  166  A    between atoms: _416  and  _417
REMARK  167  A    between atoms: _416  and  _419
REMARK  168  A    between atoms: _419  and  _420
REMARK  169  A    between atoms: _422  and  _424
REMARK  170  A    between atoms: _424  and  _425
REMARK  171  A    between atoms: _428  and  _430
REMARK  172  A    between atoms: _430  and  _431
REMARK  173  A    between atoms: _430  and  _433
REMARK  174  A    between atoms: _433  and  _434
REMARK  175  A    between atoms: _434  and  _435
REMARK  176  A    between atoms: _435  and  _436
REMARK  177  A    between atoms: _445  and  _447
REMARK  178  A    between atoms: _447  and  _448
REMARK  179  A    between atoms: _450  and  _452
REMARK  180  A    between atoms: _452  and  _453
REMARK  181  A    between atoms: _452  and  _455
REMARK  182  A    between atoms: _455  and  _456
REMARK  183  A    between atoms: _459  and  _461
REMARK  184  A    between atoms: _461  and  _462
REMARK  185  A    between atoms: _461  and  _464
REMARK  186  A    between atoms: _464  and  _465
REMARK  187  A    between atoms: _465  and  _466
REMARK  188  A    between atoms: _469  and  _471
REMARK  189  A    between atoms: _471  and  _472
REMARK  190  A    between atoms: _471  and  _474
REMARK  191  A    between atoms: _474  and  _475
REMARK  192  A    between atoms: _480  and  _481
REMARK  193  A    between atoms: _483  and  _485
REMARK  194  A    between atoms: _485  and  _486
REMARK  195  A    between atoms: _485  and  _488
REMARK  196  A    between atoms: _488  and  _489
REMARK  197  A    between atoms: _489  and  _490
REMARK  198  A    between atoms: _493  and  _495
REMARK  199  A    between atoms: _495  and  _496
REMARK  200  A    between atoms: _495  and  _498
REMARK  201  A    between atoms: _498  and  _499
REMARK  202  A    between atoms: _501  and  _503
REMARK  203  A    between atoms: _503  and  _504
REMARK  204  A    between atoms: _503  and  _506
REMARK  205  A    between atoms: _506  and  _507
REMARK  206  A    between atoms: _513  and  _515
REMARK  207  A    between atoms: _515  and  _516
REMARK  208  A    between atoms: _518  and  _520
REMARK  209  A    between atoms: _520  and  _521
REMARK  210  A    between atoms: _523  and  _525
REMARK  211  A    between atoms: _525  and  _526
REMARK  212  A    between atoms: _525  and  _528
REMARK  213  A    between atoms: _528  and  _529
REMARK  214  A    between atoms: _532  and  _534
REMARK  215  A    between atoms: _534  and  _535
REMARK  216  A    between atoms: _534  and  _537
REMARK  217  A    between atoms: _537  and  _538
REMARK  218  A    between atoms: _541  and  _543
REMARK  219  A    between atoms: _543  and  _544
REMARK  220  A    between atoms: _547  and  _549
REMARK  221  A    between atoms: _549  and  _550
REMARK  222  A    between atoms: _549  and  _552
REMARK  223  A    between atoms: _552  and  _553
REMARK  224  A    between atoms: _558  and  _560
REMARK  225  A    between atoms: _560  and  _561
REMARK  226  A    between atoms: _560  and  _563
REMARK  227  A    between atoms: _563  and  _564
REMARK  228  A    between atoms: _569  and  _571
REMARK  229  A    between atoms: _571  and  _572
REMARK  230  A    between atoms: _571  and  _574
REMARK  231  A    between atoms: _574  and  _575
REMARK  232  A    between atoms: _577  and  _579
REMARK  233  A    between atoms: _579  and  _580
REMARK  234  A    between atoms: _579  and  _582
REMARK  235  A    between atoms: _582  and  _583
REMARK  236  A    between atoms: _583  and  _584
REMARK  237  A    between atoms: _589  and  _591
REMARK  238  A    between atoms: _591  and  _592
REMARK  239  A    between atoms: _591  and  _594
REMARK  240  A    between atoms: _594  and  _595
REMARK  241  A    between atoms: _595  and  _596
REMARK                            x       y       z     vdW  Elec       q    Type
REMARK                         _______ _______ _______ _____ _____    ______ ____
ROOT
ATOM      1  O   HOH     1      24.876  63.368  37.124  0.00  0.00    +0.000 OA
ENDROOT
TORSDOF 0
REMARK  Name = ../refined-set-2016/2zq0/2zq0_pocket.pdb
REMARK  241 active torsions:
REMARK  status: ('A' for Active; 'I' for Inactive)
REMARK    1  A    between atoms: _1  and  _3
REMARK    2  A    between atoms: _3  and  _4
REMARK    3  A    between atoms: _3  and  _6
REMARK    4  A    between atoms: _6  and  _7
REMARK    5  A    between atoms: _10  and  _12
REMARK    6  A    between atoms: _12  and  _13
REMARK    7  A    between atoms: _12  and  _15
REMARK    8  A    between atoms: _15  and  _16
REMARK    9  A    between atoms: _16  and  _17
REMARK   10  A    between atoms: _22  and  _24
REMARK   11  A    between atoms: _24  and  _25
REMARK   12  A    between atoms: _24  and  _27
REMARK   13  A    between atoms: _27  and  _28
REMARK   14  A    between atoms: _28  and  _29
REMARK   15  A    between atoms: _29  and  _31
REMARK   16  A    between atoms: _31  and  CA_598
REMARK   17  A    between atoms: _32  and  _34
REMARK   18  A    between atoms: _34  and  _35
REMARK   19  A    between atoms: _34  and  _37
REMARK   20  A    between atoms: _37  and  _38
REMARK   21  A    between atoms: _42  and  _43
REMARK   22  A    between atoms: _48  and  _50
REMARK   23  A    between atoms: _50  and  _51
REMARK   24  A    between atoms: _50  and  _53
REMARK   25  A    between atoms: _53  and  _54
REMARK   26  A    between atoms: _59  and  _61
REMARK   27  A    between atoms: _61  and  _62
REMARK   28  A    between atoms: _61  and  _64
REMARK   29  A    between atoms: _64  and  _65
REMARK   30  A    between atoms: _67  and  _69
REMARK   31  A    between atoms: _69  and  _70
REMARK   32  A    between atoms: _69  and  _72
REMARK   33  A    between atoms: _72  and  _73
REMARK   34  A    between atoms: _75  and  _77
REMARK   35  A    between atoms: _77  and  _78
REMARK   36  A    between atoms: _77  and  _80
REMARK   37  A    between atoms: _80  and  _81
REMARK   38  A    between atoms: _81  and  _82
REMARK   39  A    between atoms: _87  and  _89
REMARK   40  A    between atoms: _89  and  _90
REMARK   41  A    between atoms: _89  and  _92
REMARK   42  A    between atoms: _92  and  _93
REMARK   43  A    between atoms: _98  and  _99
REMARK   44  A    between atoms: _101  and  _103
REMARK   45  A    between atoms: _103  and  _104
REMARK   46  A    between atoms: _103  and  _106
REMARK   47  A    between atoms: _109  and  _111
REMARK   48  A    between atoms: _111  and  _112
REMARK   49  A    between atoms: _111  and  _114
REMARK   50  A    between atoms: _114  and  _115
REMARK   51  A    between atoms: _125  and  _127
REMARK   52  A    between atoms: _127  and  _128
REMARK   53  A    between atoms: _127  and  _130
REMARK   54  A    between atoms: _130  and  _131
REMARK   55  A    between atoms: _141  and  _143
REMARK   56  A    between atoms: _143  and  _144
REMARK   57  A    between atoms: _143  and  _146
REMARK   58  A    between atoms: _146  and  _147
REMARK   59  A    between atoms: _147  and  _148
REMARK   60  A    between atoms: _150  and  _152
REMARK   61  A    between atoms: _152  and  _153
REMARK   62  A    between atoms: _152  and  _155
REMARK   63  A    between atoms: _155  and  _156
REMARK   64  A    between atoms: _159  and  _161
REMARK   65  A    between atoms: _161  and  _162
REMARK   66  A    between atoms: _161  and  _164
REMARK   67  A    between atoms: _164  and  _165
REMARK   68  A    between atoms: _168  and  _170
REMARK   69  A    between atoms: _170  and  _171
REMARK   70  A    between atoms: _170  and  _173
REMARK   71  A    between atoms: _173  and  _174
REMARK   72  A    between atoms: _184  and  _186
REMARK   73  A    between atoms: _186  and  _187
REMARK   74  A    between atoms: _186  and  _189
REMARK   75  A    between atoms: _189  and  _190
REMARK   76  A    between atoms: _193  and  _195
REMARK   77  A    between atoms: _195  and  _196
REMARK   78  A    between atoms: _195  and  _198
REMARK   79  A    between atoms: _198  and  _199
REMARK   80  A    between atoms: _199  and  _200
REMARK   81  A    between atoms: _203  and  _205
REMARK   82  A    between atoms: _205  and  _206
REMARK   83  A    between atoms: _208  and  _210
REMARK   84  A    between atoms: _210  and  _211
REMARK   85  A    between atoms: _210  and  _213
REMARK   86  A    between atoms: _213  and  _214
REMARK   87  A    between atoms: _224  and  _226
REMARK   88  A    between atoms: _226  and  _227
REMARK   89  A    between atoms: _226  and  _229
REMARK   90  A    between atoms: _229  and  _230
REMARK   91  A    between atoms: _240  and  _242
REMARK   92  A    between atoms: _242  and  _243
REMARK   93  A    between atoms: _242  and  _245
REMARK   94  A    between atoms: _245  and  _246
REMARK   95  A    between atoms: _252  and  _254
REMARK   96  A    between atoms: _254  and  _255
REMARK   97  A    between atoms: _254  and  _257
REMARK   98  A    between atoms: _257  and  _258
REMARK   99  A    between atoms: _264  and  _266
REMARK  100  A    between atoms: _266  and  _267
REMARK  101  A    between atoms: _266  and  _269
REMARK  102  A    between atoms: _269  and  _270
REMARK  103  A    between atoms: _275  and  _277
REMARK  104  A    between atoms: _277  and  _278
REMARK  105  A    between atoms: _277  and  _280
REMARK  106  A    between atoms: _280  and  _281
REMARK  107  A    between atoms: _286  and  _288
REMARK  108  A    between atoms: _288  and  _289
REMARK  109  A    between atoms: _288  and  _291
REMARK  110  A    between atoms: _291  and  _292
REMARK  111  A    between atoms: _292  and  _293
REMARK  112  A    between atoms: _296  and  _298
REMARK  113  A    between atoms: _298  and  _299
REMARK  114  A    between atoms: _298  and  _301
REMARK  115  A    between atoms: _301  and  _302
REMARK  116  A    between atoms: _305  and  _307
REMARK  117  A    between atoms: _307  and  _308
REMARK  118  A    between atoms: _307  and  _310
REMARK  119  A    between atoms: _310  and  _311
REMARK  120  A    between atoms: _313  and  _315
REMARK  121  A    between atoms: _315  and  _316
REMARK  122  A    between atoms: _315  and  _318
REMARK  123  A    between atoms: _318  and  _319
REMARK  124  A    between atoms: _319  and  _320
REMARK  125  A    between atoms: _320  and  _321
REMARK  126  A    between atoms: _321  and  _322
REMARK  127  A    between atoms: _326  and  _328
REMARK  128  A    between atoms: _328  and  _329
REMARK  129  A    between atoms: _328  and  _331
REMARK  130  A    between atoms: _331  and  _332
REMARK  131  A    between atoms: _334  and  _336
REMARK  132  A    between atoms: _336  and  _337
REMARK  133  A    between atoms: _339  and  _341
REMARK  134  A    between atoms: _341  and  _342
REMARK  135  A    between atoms: _341  and  _344
REMARK  136  A    between atoms: _344  and  _345
REMARK  137  A    between atoms: _350  and  _351
REMARK  138  A    between atoms: _353  and  _355
REMARK  139  A    between atoms: _355  and  _356
REMARK  140  A    between atoms: _355  and  _358
REMARK  141  A    between atoms: _361  and  _363
REMARK  142  A    between atoms: _363  and  _364
REMARK  143  A    between atoms: _366  and  _368
REMARK  144  A    between atoms: _368  and  _369
REMARK  145  A    between atoms: _368  and  _371
REMARK  146  A    between atoms: _371  and  _372
REMARK  147  A    between atoms: _377  and  _379
REMARK  148  A    between atoms: _379  and  _380
REMARK  149  A    between atoms: _383  and  _385
REMARK  150  A    between atoms: _385  and  _386
REMARK  151  A    between atoms: _385  and  _388
REMARK  152  A    between atoms: _388  and  _389
REMARK  153  A    between atoms: _394  and  _396
REMARK  154  A    between atoms: _396  and  _397
REMARK  155  A    between atoms: _396  and  _399
REMARK  156  A    between atoms: _399  and  _400
REMARK  157  A    between atoms: _400  and  _401
REMARK  158  A    between atoms: _401  and  _402
REMARK  159  A    between atoms: _402  and  CA_598
REMARK  160  A    between atoms: _404  and  _406
REMARK  161  A    between atoms: _406  and  _407
REMARK  162  A    between atoms: _406  and  _409
REMARK  163  A    between atoms: _409  and  _410
REMARK  164  A    between atoms: _410  and  _411
REMARK  165  A    between atoms: _414  and  _416
REMARK  166  A    between atoms: _416  and  _417
REMARK  167  A    between atoms: _416  and  _419
REMARK  168  A    between atoms: _419  and  _420
REMARK  169  A    between atoms: _422  and  _424
REMARK  170  A    between atoms: _424  and  _425
REMARK  171  A    between atoms: _428  and  _430
REMARK  172  A    between atoms: _430  and  _431
REMARK  173  A    between atoms: _430  and  _433
REMARK  174  A    between atoms: _433  and  _434
REMARK  175  A    between atoms: _434  and  _435
REMARK  176  A    between atoms: _435  and  _436
REMARK  177  A    between atoms: _445  and  _447
REMARK  178  A    between atoms: _447  and  _448
REMARK  179  A    between atoms: _450  and  _452
REMARK  180  A    between atoms: _452  and  _453
REMARK  181  A    between atoms: _452  and  _455
REMARK  182  A    between atoms: _455  and  _456
REMARK  183  A    between atoms: _459  and  _461
REMARK  184  A    between atoms: _461  and  _462
REMARK  185  A    between atoms: _461  and  _464
REMARK  186  A    between atoms: _464  and  _465
REMARK  187  A    between atoms: _465  and  _466
REMARK  188  A    between atoms: _469  and  _471
REMARK  189  A    between atoms: _471  and  _472
REMARK  190  A    between atoms: _471  and  _474
REMARK  191  A    between atoms: _474  and  _475
REMARK  192  A    between atoms: _480  and  _481
REMARK  193  A    between atoms: _483  and  _485
REMARK  194  A    between atoms: _485  and  _486
REMARK  195  A    between atoms: _485  and  _488
REMARK  196  A    between atoms: _488  and  _489
REMARK  197  A    between atoms: _489  and  _490
REMARK  198  A    between atoms: _493  and  _495
REMARK  199  A    between atoms: _495  and  _496
REMARK  200  A    between atoms: _495  and  _498
REMARK  201  A    between atoms: _498  and  _499
REMARK  202  A    between atoms: _501  and  _503
REMARK  203  A    between atoms: _503  and  _504
REMARK  204  A    between atoms: _503  and  _506
REMARK  205  A    between atoms: _506  and  _507
REMARK  206  A    between atoms: _513  and  _515
REMARK  207  A    between atoms: _515  and  _516
REMARK  208  A    between atoms: _518  and  _520
REMARK  209  A    between atoms: _520  and  _521
REMARK  210  A    between atoms: _523  and  _525
REMARK  211  A    between atoms: _525  and  _526
REMARK  212  A    between atoms: _525  and  _528
REMARK  213  A    between atoms: _528  and  _529
REMARK  214  A    between atoms: _532  and  _534
REMARK  215  A    between atoms: _534  and  _535
REMARK  216  A    between atoms: _534  and  _537
REMARK  217  A    between atoms: _537  and  _538
REMARK  218  A    between atoms: _541  and  _543
REMARK  219  A    between atoms: _543  and  _544
REMARK  220  A    between atoms: _547  and  _549
REMARK  221  A    between atoms: _549  and  _550
REMARK  222  A    between atoms: _549  and  _552
REMARK  223  A    between atoms: _552  and  _553
REMARK  224  A    between atoms: _558  and  _560
REMARK  225  A    between atoms: _560  and  _561
REMARK  226  A    between atoms: _560  and  _563
REMARK  227  A    between atoms: _563  and  _564
REMARK  228  A    between atoms: _569  and  _571
REMARK  229  A    between atoms: _571  and  _572
REMARK  230  A    between atoms: _571  and  _574
REMARK  231  A    between atoms: _574  and  _575
REMARK  232  A    between atoms: _577  and  _579
REMARK  233  A    between atoms: _579  and  _580
REMARK  234  A    between atoms: _579  and  _582
REMARK  235  A    between atoms: _582  and  _583
REMARK  236  A    between atoms: _583  and  _584
REMARK  237  A    between atoms: _589  and  _591
REMARK  238  A    between atoms: _591  and  _592
REMARK  239  A    between atoms: _591  and  _594
REMARK  240  A    between atoms: _594  and  _595
REMARK  241  A    between atoms: _595  and  _596
REMARK                            x       y       z     vdW  Elec       q    Type
REMARK                         _______ _______ _______ _____ _____    ______ ____
ROOT
ATOM      1  O   HOH     1      28.373  64.926  39.597  0.00  0.00    +0.000 OA
ENDROOT
TORSDOF 0
REMARK  Name = ../refined-set-2016/2zq0/2zq0_pocket.pdb
REMARK  241 active torsions:
REMARK  status: ('A' for Active; 'I' for Inactive)
REMARK    1  A    between atoms: _1  and  _3
REMARK    2  A    between atoms: _3  and  _4
REMARK    3  A    between atoms: _3  and  _6
REMARK    4  A    between atoms: _6  and  _7
REMARK    5  A    between atoms: _10  and  _12
REMARK    6  A    between atoms: _12  and  _13
REMARK    7  A    between atoms: _12  and  _15
REMARK    8  A    between atoms: _15  and  _16
REMARK    9  A    between atoms: _16  and  _17
REMARK   10  A    between atoms: _22  and  _24
REMARK   11  A    between atoms: _24  and  _25
REMARK   12  A    between atoms: _24  and  _27
REMARK   13  A    between atoms: _27  and  _28
REMARK   14  A    between atoms: _28  and  _29
REMARK   15  A    between atoms: _29  and  _31
REMARK   16  A    between atoms: _31  and  CA_598
REMARK   17  A    between atoms: _32  and  _34
REMARK   18  A    between atoms: _34  and  _35
REMARK   19  A    between atoms: _34  and  _37
REMARK   20  A    between atoms: _37  and  _38
REMARK   21  A    between atoms: _42  and  _43
REMARK   22  A    between atoms: _48  and  _50
REMARK   23  A    between atoms: _50  and  _51
REMARK   24  A    between atoms: _50  and  _53
REMARK   25  A    between atoms: _53  and  _54
REMARK   26  A    between atoms: _59  and  _61
REMARK   27  A    between atoms: _61  and  _62
REMARK   28  A    between atoms: _61  and  _64
REMARK   29  A    between atoms: _64  and  _65
REMARK   30  A    between atoms: _67  and  _69
REMARK   31  A    between atoms: _69  and  _70
REMARK   32  A    between atoms: _69  and  _72
REMARK   33  A    between atoms: _72  and  _73
REMARK   34  A    between atoms: _75  and  _77
REMARK   35  A    between atoms: _77  and  _78
REMARK   36  A    between atoms: _77  and  _80
REMARK   37  A    between atoms: _80  and  _81
REMARK   38  A    between atoms: _81  and  _82
REMARK   39  A    between atoms: _87  and  _89
REMARK   40  A    between atoms: _89  and  _90
REMARK   41  A    between atoms: _89  and  _92
REMARK   42  A    between atoms: _92  and  _93
REMARK   43  A    between atoms: _98  and  _99
REMARK   44  A    between atoms: _101  and  _103
REMARK   45  A    between atoms: _103  and  _104
REMARK   46  A    between atoms: _103  and  _106
REMARK   47  A    between atoms: _109  and  _111
REMARK   48  A    between atoms: _111  and  _112
REMARK   49  A    between atoms: _111  and  _114
REMARK   50  A    between atoms: _114  and  _115
REMARK   51  A    between atoms: _125  and  _127
REMARK   52  A    between atoms: _127  and  _128
REMARK   53  A    between atoms: _127  and  _130
REMARK   54  A    between atoms: _130  and  _131
REMARK   55  A    between atoms: _141  and  _143
REMARK   56  A    between atoms: _143  and  _144
REMARK   57  A    between atoms: _143  and  _146
REMARK   58  A    between atoms: _146  and  _147
REMARK   59  A    between atoms: _147  and  _148
REMARK   60  A    between atoms: _150  and  _152
REMARK   61  A    between atoms: _152  and  _153
REMARK   62  A    between atoms: _152  and  _155
REMARK   63  A    between atoms: _155  and  _156
REMARK   64  A    between atoms: _159  and  _161
REMARK   65  A    between atoms: _161  and  _162
REMARK   66  A    between atoms: _161  and  _164
REMARK   67  A    between atoms: _164  and  _165
REMARK   68  A    between atoms: _168  and  _170
REMARK   69  A    between atoms: _170  and  _171
REMARK   70  A    between atoms: _170  and  _173
REMARK   71  A    between atoms: _173  and  _174
REMARK   72  A    between atoms: _184  and  _186
REMARK   73  A    between atoms: _186  and  _187
REMARK   74  A    between atoms: _186  and  _189
REMARK   75  A    between atoms: _189  and  _190
REMARK   76  A    between atoms: _193  and  _195
REMARK   77  A    between atoms: _195  and  _196
REMARK   78  A    between atoms: _195  and  _198
REMARK   79  A    between atoms: _198  and  _199
REMARK   80  A    between atoms: _199  and  _200
REMARK   81  A    between atoms: _203  and  _205
REMARK   82  A    between atoms: _205  and  _206
REMARK   83  A    between atoms: _208  and  _210
REMARK   84  A    between atoms: _210  and  _211
REMARK   85  A    between atoms: _210  and  _213
REMARK   86  A    between atoms: _213  and  _214
REMARK   87  A    between atoms: _224  and  _226
REMARK   88  A    between atoms: _226  and  _227
REMARK   89  A    between atoms: _226  and  _229
REMARK   90  A    between atoms: _229  and  _230
REMARK   91  A    between atoms: _240  and  _242
REMARK   92  A    between atoms: _242  and  _243
REMARK   93  A    between atoms: _242  and  _245
REMARK   94  A    between atoms: _245  and  _246
REMARK   95  A    between atoms: _252  and  _254
REMARK   96  A    between atoms: _254  and  _255
REMARK   97  A    between atoms: _254  and  _257
REMARK   98  A    between atoms: _257  and  _258
REMARK   99  A    between atoms: _264  and  _266
REMARK  100  A    between atoms: _266  and  _267
REMARK  101  A    between atoms: _266  and  _269
REMARK  102  A    between atoms: _269  and  _270
REMARK  103  A    between atoms: _275  and  _277
REMARK  104  A    between atoms: _277  and  _278
REMARK  105  A    between atoms: _277  and  _280
REMARK  106  A    between atoms: _280  and  _281
REMARK  107  A    between atoms: _286  and  _288
REMARK  108  A    between atoms: _288  and  _289
REMARK  109  A    between atoms: _288  and  _291
REMARK  110  A    between atoms: _291  and  _292
REMARK  111  A    between atoms: _292  and  _293
REMARK  112  A    between atoms: _296  and  _298
REMARK  113  A    between atoms: _298  and  _299
REMARK  114  A    between atoms: _298  and  _301
REMARK  115  A    between atoms: _301  and  _302
REMARK  116  A    between atoms: _305  and  _307
REMARK  117  A    between atoms: _307  and  _308
REMARK  118  A    between atoms: _307  and  _310
REMARK  119  A    between atoms: _310  and  _311
REMARK  120  A    between atoms: _313  and  _315
REMARK  121  A    between atoms: _315  and  _316
REMARK  122  A    between atoms: _315  and  _318
REMARK  123  A    between atoms: _318  and  _319
REMARK  124  A    between atoms: _319  and  _320
REMARK  125  A    between atoms: _320  and  _321
REMARK  126  A    between atoms: _321  and  _322
REMARK  127  A    between atoms: _326  and  _328
REMARK  128  A    between atoms: _328  and  _329
REMARK  129  A    between atoms: _328  and  _331
REMARK  130  A    between atoms: _331  and  _332
REMARK  131  A    between atoms: _334  and  _336
REMARK  132  A    between atoms: _336  and  _337
REMARK  133  A    between atoms: _339  and  _341
REMARK  134  A    between atoms: _341  and  _342
REMARK  135  A    between atoms: _341  and  _344
REMARK  136  A    between atoms: _344  and  _345
REMARK  137  A    between atoms: _350  and  _351
REMARK  138  A    between atoms: _353  and  _355
REMARK  139  A    between atoms: _355  and  _356
REMARK  140  A    between atoms: _355  and  _358
REMARK  141  A    between atoms: _361  and  _363
REMARK  142  A    between atoms: _363  and  _364
REMARK  143  A    between atoms: _366  and  _368
REMARK  144  A    between atoms: _368  and  _369
REMARK  145  A    between atoms: _368  and  _371
REMARK  146  A    between atoms: _371  and  _372
REMARK  147  A    between atoms: _377  and  _379
REMARK  148  A    between atoms: _379  and  _380
REMARK  149  A    between atoms: _383  and  _385
REMARK  150  A    between atoms: _385  and  _386
REMARK  151  A    between atoms: _385  and  _388
REMARK  152  A    between atoms: _388  and  _389
REMARK  153  A    between atoms: _394  and  _396
REMARK  154  A    between atoms: _396  and  _397
REMARK  155  A    between atoms: _396  and  _399
REMARK  156  A    between atoms: _399  and  _400
REMARK  157  A    between atoms: _400  and  _401
REMARK  158  A    between atoms: _401  and  _402
REMARK  159  A    between atoms: _402  and  CA_598
REMARK  160  A    between atoms: _404  and  _406
REMARK  161  A    between atoms: _406  and  _407
REMARK  162  A    between atoms: _406  and  _409
REMARK  163  A    between atoms: _409  and  _410
REMARK  164  A    between atoms: _410  and  _411
REMARK  165  A    between atoms: _414  and  _416
REMARK  166  A    between atoms: _416  and  _417
REMARK  167  A    between atoms: _416  and  _419
REMARK  168  A    between atoms: _419  and  _420
REMARK  169  A    between atoms: _422  and  _424
REMARK  170  A    between atoms: _424  and  _425
REMARK  171  A    between atoms: _428  and  _430
REMARK  172  A    between atoms: _430  and  _431
REMARK  173  A    between atoms: _430  and  _433
REMARK  174  A    between atoms: _433  and  _434
REMARK  175  A    between atoms: _434  and  _435
REMARK  176  A    between atoms: _435  and  _436
REMARK  177  A    between atoms: _445  and  _447
REMARK  178  A    between atoms: _447  and  _448
REMARK  179  A    between atoms: _450  and  _452
REMARK  180  A    between atoms: _452  and  _453
REMARK  181  A    between atoms: _452  and  _455
REMARK  182  A    between atoms: _455  and  _456
REMARK  183  A    between atoms: _459  and  _461
REMARK  184  A    between atoms: _461  and  _462
REMARK  185  A    between atoms: _461  and  _464
REMARK  186  A    between atoms: _464  and  _465
REMARK  187  A    between atoms: _465  and  _466
REMARK  188  A    between atoms: _469  and  _471
REMARK  189  A    between atoms: _471  and  _472
REMARK  190  A    between atoms: _471  and  _474
REMARK  191  A    between atoms: _474  and  _475
REMARK  192  A    between atoms: _480  and  _481
REMARK  193  A    between atoms: _483  and  _485
REMARK  194  A    between atoms: _485  and  _486
REMARK  195  A    between atoms: _485  and  _488
REMARK  196  A    between atoms: _488  and  _489
REMARK  197  A    between atoms: _489  and  _490
REMARK  198  A    between atoms: _493  and  _495
REMARK  199  A    between atoms: _495  and  _496
REMARK  200  A    between atoms: _495  and  _498
REMARK  201  A    between atoms: _498  and  _499
REMARK  202  A    between atoms: _501  and  _503
REMARK  203  A    between atoms: _503  and  _504
REMARK  204  A    between atoms: _503  and  _506
REMARK  205  A    between atoms: _506  and  _507
REMARK  206  A    between atoms: _513  and  _515
REMARK  207  A    between atoms: _515  and  _516
REMARK  208  A    between atoms: _518  and  _520
REMARK  209  A    between atoms: _520  and  _521
REMARK  210  A    between atoms: _523  and  _525
REMARK  211  A    between atoms: _525  and  _526
REMARK  212  A    between atoms: _525  and  _528
REMARK  213  A    between atoms: _528  and  _529
REMARK  214  A    between atoms: _532  and  _534
REMARK  215  A    between atoms: _534  and  _535
REMARK  216  A    between atoms: _534  and  _537
REMARK  217  A    between atoms: _537  and  _538
REMARK  218  A    between atoms: _541  and  _543
REMARK  219  A    between atoms: _543  and  _544
REMARK  220  A    between atoms: _547  and  _549
REMARK  221  A    between atoms: _549  and  _550
REMARK  222  A    between atoms: _549  and  _552
REMARK  223  A    between atoms: _552  and  _553
REMARK  224  A    between atoms: _558  and  _560
REMARK  225  A    between atoms: _560  and  _561
REMARK  226  A    between atoms: _560  and  _563
REMARK  227  A    between atoms: _563  and  _564
REMARK  228  A    between atoms: _569  and  _571
REMARK  229  A    between atoms: _571  and  _572
REMARK  230  A    between atoms: _571  and  _574
REMARK  231  A    between atoms: _574  and  _575
REMARK  232  A    between atoms: _577  and  _579
REMARK  233  A    between atoms: _579  and  _580
REMARK  234  A    between atoms: _579  and  _582
REMARK  235  A    between atoms: _582  and  _583
REMARK  236  A    between atoms: _583  and  _584
REMARK  237  A    between atoms: _589  and  _591
REMARK  238  A    between atoms: _591  and  _592
REMARK  239  A    between atoms: _591  and  _594
REMARK  240  A    between atoms: _594  and  _595
REMARK  241  A    between atoms: _595  and  _596
REMARK                            x       y       z     vdW  Elec       q    Type
REMARK                         _______ _______ _______ _____ _____    ______ ____
ROOT
ATOM      1  O   HOH     1      32.741  43.612  42.423  0.00  0.00    +0.000 OA
ENDROOT
TORSDOF 0
REMARK  Name = ../refined-set-2016/2zq0/2zq0_pocket.pdb
REMARK  241 active torsions:
REMARK  status: ('A' for Active; 'I' for Inactive)
REMARK    1  A    between atoms: _1  and  _3
REMARK    2  A    between atoms: _3  and  _4
REMARK    3  A    between atoms: _3  and  _6
REMARK    4  A    between atoms: _6  and  _7
REMARK    5  A    between atoms: _10  and  _12
REMARK    6  A    between atoms: _12  and  _13
REMARK    7  A    between atoms: _12  and  _15
REMARK    8  A    between atoms: _15  and  _16
REMARK    9  A    between atoms: _16  and  _17
REMARK   10  A    between atoms: _22  and  _24
REMARK   11  A    between atoms: _24  and  _25
REMARK   12  A    between atoms: _24  and  _27
REMARK   13  A    between atoms: _27  and  _28
REMARK   14  A    between atoms: _28  and  _29
REMARK   15  A    between atoms: _29  and  _31
REMARK   16  A    between atoms: _31  and  CA_598
REMARK   17  A    between atoms: _32  and  _34
REMARK   18  A    between atoms: _34  and  _35
REMARK   19  A    between atoms: _34  and  _37
REMARK   20  A    between atoms: _37  and  _38
REMARK   21  A    between atoms: _42  and  _43
REMARK   22  A    between atoms: _48  and  _50
REMARK   23  A    between atoms: _50  and  _51
REMARK   24  A    between atoms: _50  and  _53
REMARK   25  A    between atoms: _53  and  _54
REMARK   26  A    between atoms: _59  and  _61
REMARK   27  A    between atoms: _61  and  _62
REMARK   28  A    between atoms: _61  and  _64
REMARK   29  A    between atoms: _64  and  _65
REMARK   30  A    between atoms: _67  and  _69
REMARK   31  A    between atoms: _69  and  _70
REMARK   32  A    between atoms: _69  and  _72
REMARK   33  A    between atoms: _72  and  _73
REMARK   34  A    between atoms: _75  and  _77
REMARK   35  A    between atoms: _77  and  _78
REMARK   36  A    between atoms: _77  and  _80
REMARK   37  A    between atoms: _80  and  _81
REMARK   38  A    between atoms: _81  and  _82
REMARK   39  A    between atoms: _87  and  _89
REMARK   40  A    between atoms: _89  and  _90
REMARK   41  A    between atoms: _89  and  _92
REMARK   42  A    between atoms: _92  and  _93
REMARK   43  A    between atoms: _98  and  _99
REMARK   44  A    between atoms: _101  and  _103
REMARK   45  A    between atoms: _103  and  _104
REMARK   46  A    between atoms: _103  and  _106
REMARK   47  A    between atoms: _109  and  _111
REMARK   48  A    between atoms: _111  and  _112
REMARK   49  A    between atoms: _111  and  _114
REMARK   50  A    between atoms: _114  and  _115
REMARK   51  A    between atoms: _125  and  _127
REMARK   52  A    between atoms: _127  and  _128
REMARK   53  A    between atoms: _127  and  _130
REMARK   54  A    between atoms: _130  and  _131
REMARK   55  A    between atoms: _141  and  _143
REMARK   56  A    between atoms: _143  and  _144
REMARK   57  A    between atoms: _143  and  _146
REMARK   58  A    between atoms: _146  and  _147
REMARK   59  A    between atoms: _147  and  _148
REMARK   60  A    between atoms: _150  and  _152
REMARK   61  A    between atoms: _152  and  _153
REMARK   62  A    between atoms: _152  and  _155
REMARK   63  A    between atoms: _155  and  _156
REMARK   64  A    between atoms: _159  and  _161
REMARK   65  A    between atoms: _161  and  _162
REMARK   66  A    between atoms: _161  and  _164
REMARK   67  A    between atoms: _164  and  _165
REMARK   68  A    between atoms: _168  and  _170
REMARK   69  A    between atoms: _170  and  _171
REMARK   70  A    between atoms: _170  and  _173
REMARK   71  A    between atoms: _173  and  _174
REMARK   72  A    between atoms: _184  and  _186
REMARK   73  A    between atoms: _186  and  _187
REMARK   74  A    between atoms: _186  and  _189
REMARK   75  A    between atoms: _189  and  _190
REMARK   76  A    between atoms: _193  and  _195
REMARK   77  A    between atoms: _195  and  _196
REMARK   78  A    between atoms: _195  and  _198
REMARK   79  A    between atoms: _198  and  _199
REMARK   80  A    between atoms: _199  and  _200
REMARK   81  A    between atoms: _203  and  _205
REMARK   82  A    between atoms: _205  and  _206
REMARK   83  A    between atoms: _208  and  _210
REMARK   84  A    between atoms: _210  and  _211
REMARK   85  A    between atoms: _210  and  _213
REMARK   86  A    between atoms: _213  and  _214
REMARK   87  A    between atoms: _224  and  _226
REMARK   88  A    between atoms: _226  and  _227
REMARK   89  A    between atoms: _226  and  _229
REMARK   90  A    between atoms: _229  and  _230
REMARK   91  A    between atoms: _240  and  _242
REMARK   92  A    between atoms: _242  and  _243
REMARK   93  A    between atoms: _242  and  _245
REMARK   94  A    between atoms: _245  and  _246
REMARK   95  A    between atoms: _252  and  _254
REMARK   96  A    between atoms: _254  and  _255
REMARK   97  A    between atoms: _254  and  _257
REMARK   98  A    between atoms: _257  and  _258
REMARK   99  A    between atoms: _264  and  _266
REMARK  100  A    between atoms: _266  and  _267
REMARK  101  A    between atoms: _266  and  _269
REMARK  102  A    between atoms: _269  and  _270
REMARK  103  A    between atoms: _275  and  _277
REMARK  104  A    between atoms: _277  and  _278
REMARK  105  A    between atoms: _277  and  _280
REMARK  106  A    between atoms: _280  and  _281
REMARK  107  A    between atoms: _286  and  _288
REMARK  108  A    between atoms: _288  and  _289
REMARK  109  A    between atoms: _288  and  _291
REMARK  110  A    between atoms: _291  and  _292
REMARK  111  A    between atoms: _292  and  _293
REMARK  112  A    between atoms: _296  and  _298
REMARK  113  A    between atoms: _298  and  _299
REMARK  114  A    between atoms: _298  and  _301
REMARK  115  A    between atoms: _301  and  _302
REMARK  116  A    between atoms: _305  and  _307
REMARK  117  A    between atoms: _307  and  _308
REMARK  118  A    between atoms: _307  and  _310
REMARK  119  A    between atoms: _310  and  _311
REMARK  120  A    between atoms: _313  and  _315
REMARK  121  A    between atoms: _315  and  _316
REMARK  122  A    between atoms: _315  and  _318
REMARK  123  A    between atoms: _318  and  _319
REMARK  124  A    between atoms: _319  and  _320
REMARK  125  A    between atoms: _320  and  _321
REMARK  126  A    between atoms: _321  and  _322
REMARK  127  A    between atoms: _326  and  _328
REMARK  128  A    between atoms: _328  and  _329
REMARK  129  A    between atoms: _328  and  _331
REMARK  130  A    between atoms: _331  and  _332
REMARK  131  A    between atoms: _334  and  _336
REMARK  132  A    between atoms: _336  and  _337
REMARK  133  A    between atoms: _339  and  _341
REMARK  134  A    between atoms: _341  and  _342
REMARK  135  A    between atoms: _341  and  _344
REMARK  136  A    between atoms: _344  and  _345
REMARK  137  A    between atoms: _350  and  _351
REMARK  138  A    between atoms: _353  and  _355
REMARK  139  A    between atoms: _355  and  _356
REMARK  140  A    between atoms: _355  and  _358
REMARK  141  A    between atoms: _361  and  _363
REMARK  142  A    between atoms: _363  and  _364
REMARK  143  A    between atoms: _366  and  _368
REMARK  144  A    between atoms: _368  and  _369
REMARK  145  A    between atoms: _368  and  _371
REMARK  146  A    between atoms: _371  and  _372
REMARK  147  A    between atoms: _377  and  _379
REMARK  148  A    between atoms: _379  and  _380
REMARK  149  A    between atoms: _383  and  _385
REMARK  150  A    between atoms: _385  and  _386
REMARK  151  A    between atoms: _385  and  _388
REMARK  152  A    between atoms: _388  and  _389
REMARK  153  A    between atoms: _394  and  _396
REMARK  154  A    between atoms: _396  and  _397
REMARK  155  A    between atoms: _396  and  _399
REMARK  156  A    between atoms: _399  and  _400
REMARK  157  A    between atoms: _400  and  _401
REMARK  158  A    between atoms: _401  and  _402
REMARK  159  A    between atoms: _402  and  CA_598
REMARK  160  A    between atoms: _404  and  _406
REMARK  161  A    between atoms: _406  and  _407
REMARK  162  A    between atoms: _406  and  _409
REMARK  163  A    between atoms: _409  and  _410
REMARK  164  A    between atoms: _410  and  _411
REMARK  165  A    between atoms: _414  and  _416
REMARK  166  A    between atoms: _416  and  _417
REMARK  167  A    between atoms: _416  and  _419
REMARK  168  A    between atoms: _419  and  _420
REMARK  169  A    between atoms: _422  and  _424
REMARK  170  A    between atoms: _424  and  _425
REMARK  171  A    between atoms: _428  and  _430
REMARK  172  A    between atoms: _430  and  _431
REMARK  173  A    between atoms: _430  and  _433
REMARK  174  A    between atoms: _433  and  _434
REMARK  175  A    between atoms: _434  and  _435
REMARK  176  A    between atoms: _435  and  _436
REMARK  177  A    between atoms: _445  and  _447
REMARK  178  A    between atoms: _447  and  _448
REMARK  179  A    between atoms: _450  and  _452
REMARK  180  A    between atoms: _452  and  _453
REMARK  181  A    between atoms: _452  and  _455
REMARK  182  A    between atoms: _455  and  _456
REMARK  183  A    between atoms: _459  and  _461
REMARK  184  A    between atoms: _461  and  _462
REMARK  185  A    between atoms: _461  and  _464
REMARK  186  A    between atoms: _464  and  _465
REMARK  187  A    between atoms: _465  and  _466
REMARK  188  A    between atoms: _469  and  _471
REMARK  189  A    between atoms: _471  and  _472
REMARK  190  A    between atoms: _471  and  _474
REMARK  191  A    between atoms: _474  and  _475
REMARK  192  A    between atoms: _480  and  _481
REMARK  193  A    between atoms: _483  and  _485
REMARK  194  A    between atoms: _485  and  _486
REMARK  195  A    between atoms: _485  and  _488
REMARK  196  A    between atoms: _488  and  _489
REMARK  197  A    between atoms: _489  and  _490
REMARK  198  A    between atoms: _493  and  _495
REMARK  199  A    between atoms: _495  and  _496
REMARK  200  A    between atoms: _495  and  _498
REMARK  201  A    between atoms: _498  and  _499
REMARK  202  A    between atoms: _501  and  _503
REMARK  203  A    between atoms: _503  and  _504
REMARK  204  A    between atoms: _503  and  _506
REMARK  205  A    between atoms: _506  and  _507
REMARK  206  A    between atoms: _513  and  _515
REMARK  207  A    between atoms: _515  and  _516
REMARK  208  A    between atoms: _518  and  _520
REMARK  209  A    between atoms: _520  and  _521
REMARK  210  A    between atoms: _523  and  _525
REMARK  211  A    between atoms: _525  and  _526
REMARK  212  A    between atoms: _525  and  _528
REMARK  213  A    between atoms: _528  and  _529
REMARK  214  A    between atoms: _532  and  _534
REMARK  215  A    between atoms: _534  and  _535
REMARK  216  A    between atoms: _534  and  _537
REMARK  217  A    between atoms: _537  and  _538
REMARK  218  A    between atoms: _541  and  _543
REMARK  219  A    between atoms: _543  and  _544
REMARK  220  A    between atoms: _547  and  _549
REMARK  221  A    between atoms: _549  and  _550
REMARK  222  A    between atoms: _549  and  _552
REMARK  223  A    between atoms: _552  and  _553
REMARK  224  A    between atoms: _558  and  _560
REMARK  225  A    between atoms: _560  and  _561
REMARK  226  A    between atoms: _560  and  _563
REMARK  227  A    between atoms: _563  and  _564
REMARK  228  A    between atoms: _569  and  _571
REMARK  229  A    between atoms: _571  and  _572
REMARK  230  A    between atoms: _571  and  _574
REMARK  231  A    between atoms: _574  and  _575
REMARK  232  A    between atoms: _577  and  _579
REMARK  233  A    between atoms: _579  and  _580
REMARK  234  A    between atoms: _579  and  _582
REMARK  235  A    between atoms: _582  and  _583
REMARK  236  A    between atoms: _583  and  _584
REMARK  237  A    between atoms: _589  and  _591
REMARK  238  A    between atoms: _591  and  _592
REMARK  239  A    between atoms: _591  and  _594
REMARK  240  A    between atoms: _594  and  _595
REMARK  241  A    between atoms: _595  and  _596
REMARK                            x       y       z     vdW  Elec       q    Type
REMARK                         _______ _______ _______ _____ _____    ______ ____
ROOT
ATOM      1  O   HOH     1      25.021  54.674  40.440  0.00  0.00    +0.000 OA
ENDROOT
TORSDOF 0
REMARK  Name = ../refined-set-2016/2zq0/2zq0_pocket.pdb
REMARK  241 active torsions:
REMARK  status: ('A' for Active; 'I' for Inactive)
REMARK    1  A    between atoms: _1  and  _3
REMARK    2  A    between atoms: _3  and  _4
REMARK    3  A    between atoms: _3  and  _6
REMARK    4  A    between atoms: _6  and  _7
REMARK    5  A    between atoms: _10  and  _12
REMARK    6  A    between atoms: _12  and  _13
REMARK    7  A    between atoms: _12  and  _15
REMARK    8  A    between atoms: _15  and  _16
REMARK    9  A    between atoms: _16  and  _17
REMARK   10  A    between atoms: _22  and  _24
REMARK   11  A    between atoms: _24  and  _25
REMARK   12  A    between atoms: _24  and  _27
REMARK   13  A    between atoms: _27  and  _28
REMARK   14  A    between atoms: _28  and  _29
REMARK   15  A    between atoms: _29  and  _31
REMARK   16  A    between atoms: _31  and  CA_598
REMARK   17  A    between atoms: _32  and  _34
REMARK   18  A    between atoms: _34  and  _35
REMARK   19  A    between atoms: _34  and  _37
REMARK   20  A    between atoms: _37  and  _38
REMARK   21  A    between atoms: _42  and  _43
REMARK   22  A    between atoms: _48  and  _50
REMARK   23  A    between atoms: _50  and  _51
REMARK   24  A    between atoms: _50  and  _53
REMARK   25  A    between atoms: _53  and  _54
REMARK   26  A    between atoms: _59  and  _61
REMARK   27  A    between atoms: _61  and  _62
REMARK   28  A    between atoms: _61  and  _64
REMARK   29  A    between atoms: _64  and  _65
REMARK   30  A    between atoms: _67  and  _69
REMARK   31  A    between atoms: _69  and  _70
REMARK   32  A    between atoms: _69  and  _72
REMARK   33  A    between atoms: _72  and  _73
REMARK   34  A    between atoms: _75  and  _77
REMARK   35  A    between atoms: _77  and  _78
REMARK   36  A    between atoms: _77  and  _80
REMARK   37  A    between atoms: _80  and  _81
REMARK   38  A    between atoms: _81  and  _82
REMARK   39  A    between atoms: _87  and  _89
REMARK   40  A    between atoms: _89  and  _90
REMARK   41  A    between atoms: _89  and  _92
REMARK   42  A    between atoms: _92  and  _93
REMARK   43  A    between atoms: _98  and  _99
REMARK   44  A    between atoms: _101  and  _103
REMARK   45  A    between atoms: _103  and  _104
REMARK   46  A    between atoms: _103  and  _106
REMARK   47  A    between atoms: _109  and  _111
REMARK   48  A    between atoms: _111  and  _112
REMARK   49  A    between atoms: _111  and  _114
REMARK   50  A    between atoms: _114  and  _115
REMARK   51  A    between atoms: _125  and  _127
REMARK   52  A    between atoms: _127  and  _128
REMARK   53  A    between atoms: _127  and  _130
REMARK   54  A    between atoms: _130  and  _131
REMARK   55  A    between atoms: _141  and  _143
REMARK   56  A    between atoms: _143  and  _144
REMARK   57  A    between atoms: _143  and  _146
REMARK   58  A    between atoms: _146  and  _147
REMARK   59  A    between atoms: _147  and  _148
REMARK   60  A    between atoms: _150  and  _152
REMARK   61  A    between atoms: _152  and  _153
REMARK   62  A    between atoms: _152  and  _155
REMARK   63  A    between atoms: _155  and  _156
REMARK   64  A    between atoms: _159  and  _161
REMARK   65  A    between atoms: _161  and  _162
REMARK   66  A    between atoms: _161  and  _164
REMARK   67  A    between atoms: _164  and  _165
REMARK   68  A    between atoms: _168  and  _170
REMARK   69  A    between atoms: _170  and  _171
REMARK   70  A    between atoms: _170  and  _173
REMARK   71  A    between atoms: _173  and  _174
REMARK   72  A    between atoms: _184  and  _186
REMARK   73  A    between atoms: _186  and  _187
REMARK   74  A    between atoms: _186  and  _189
REMARK   75  A    between atoms: _189  and  _190
REMARK   76  A    between atoms: _193  and  _195
REMARK   77  A    between atoms: _195  and  _196
REMARK   78  A    between atoms: _195  and  _198
REMARK   79  A    between atoms: _198  and  _199
REMARK   80  A    between atoms: _199  and  _200
REMARK   81  A    between atoms: _203  and  _205
REMARK   82  A    between atoms: _205  and  _206
REMARK   83  A    between atoms: _208  and  _210
REMARK   84  A    between atoms: _210  and  _211
REMARK   85  A    between atoms: _210  and  _213
REMARK   86  A    between atoms: _213  and  _214
REMARK   87  A    between atoms: _224  and  _226
REMARK   88  A    between atoms: _226  and  _227
REMARK   89  A    between atoms: _226  and  _229
REMARK   90  A    between atoms: _229  and  _230
REMARK   91  A    between atoms: _240  and  _242
REMARK   92  A    between atoms: _242  and  _243
REMARK   93  A    between atoms: _242  and  _245
REMARK   94  A    between atoms: _245  and  _246
REMARK   95  A    between atoms: _252  and  _254
REMARK   96  A    between atoms: _254  and  _255
REMARK   97  A    between atoms: _254  and  _257
REMARK   98  A    between atoms: _257  and  _258
REMARK   99  A    between atoms: _264  and  _266
REMARK  100  A    between atoms: _266  and  _267
REMARK  101  A    between atoms: _266  and  _269
REMARK  102  A    between atoms: _269  and  _270
REMARK  103  A    between atoms: _275  and  _277
REMARK  104  A    between atoms: _277  and  _278
REMARK  105  A    between atoms: _277  and  _280
REMARK  106  A    between atoms: _280  and  _281
REMARK  107  A    between atoms: _286  and  _288
REMARK  108  A    between atoms: _288  and  _289
REMARK  109  A    between atoms: _288  and  _291
REMARK  110  A    between atoms: _291  and  _292
REMARK  111  A    between atoms: _292  and  _293
REMARK  112  A    between atoms: _296  and  _298
REMARK  113  A    between atoms: _298  and  _299
REMARK  114  A    between atoms: _298  and  _301
REMARK  115  A    between atoms: _301  and  _302
REMARK  116  A    between atoms: _305  and  _307
REMARK  117  A    between atoms: _307  and  _308
REMARK  118  A    between atoms: _307  and  _310
REMARK  119  A    between atoms: _310  and  _311
REMARK  120  A    between atoms: _313  and  _315
REMARK  121  A    between atoms: _315  and  _316
REMARK  122  A    between atoms: _315  and  _318
REMARK  123  A    between atoms: _318  and  _319
REMARK  124  A    between atoms: _319  and  _320
REMARK  125  A    between atoms: _320  and  _321
REMARK  126  A    between atoms: _321  and  _322
REMARK  127  A    between atoms: _326  and  _328
REMARK  128  A    between atoms: _328  and  _329
REMARK  129  A    between atoms: _328  and  _331
REMARK  130  A    between atoms: _331  and  _332
REMARK  131  A    between atoms: _334  and  _336
REMARK  132  A    between atoms: _336  and  _337
REMARK  133  A    between atoms: _339  and  _341
REMARK  134  A    between atoms: _341  and  _342
REMARK  135  A    between atoms: _341  and  _344
REMARK  136  A    between atoms: _344  and  _345
REMARK  137  A    between atoms: _350  and  _351
REMARK  138  A    between atoms: _353  and  _355
REMARK  139  A    between atoms: _355  and  _356
REMARK  140  A    between atoms: _355  and  _358
REMARK  141  A    between atoms: _361  and  _363
REMARK  142  A    between atoms: _363  and  _364
REMARK  143  A    between atoms: _366  and  _368
REMARK  144  A    between atoms: _368  and  _369
REMARK  145  A    between atoms: _368  and  _371
REMARK  146  A    between atoms: _371  and  _372
REMARK  147  A    between atoms: _377  and  _379
REMARK  148  A    between atoms: _379  and  _380
REMARK  149  A    between atoms: _383  and  _385
REMARK  150  A    between atoms: _385  and  _386
REMARK  151  A    between atoms: _385  and  _388
REMARK  152  A    between atoms: _388  and  _389
REMARK  153  A    between atoms: _394  and  _396
REMARK  154  A    between atoms: _396  and  _397
REMARK  155  A    between atoms: _396  and  _399
REMARK  156  A    between atoms: _399  and  _400
REMARK  157  A    between atoms: _400  and  _401
REMARK  158  A    between atoms: _401  and  _402
REMARK  159  A    between atoms: _402  and  CA_598
REMARK  160  A    between atoms: _404  and  _406
REMARK  161  A    between atoms: _406  and  _407
REMARK  162  A    between atoms: _406  and  _409
REMARK  163  A    between atoms: _409  and  _410
REMARK  164  A    between atoms: _410  and  _411
REMARK  165  A    between atoms: _414  and  _416
REMARK  166  A    between atoms: _416  and  _417
REMARK  167  A    between atoms: _416  and  _419
REMARK  168  A    between atoms: _419  and  _420
REMARK  169  A    between atoms: _422  and  _424
REMARK  170  A    between atoms: _424  and  _425
REMARK  171  A    between atoms: _428  and  _430
REMARK  172  A    between atoms: _430  and  _431
REMARK  173  A    between atoms: _430  and  _433
REMARK  174  A    between atoms: _433  and  _434
REMARK  175  A    between atoms: _434  and  _435
REMARK  176  A    between atoms: _435  and  _436
REMARK  177  A    between atoms: _445  and  _447
REMARK  178  A    between atoms: _447  and  _448
REMARK  179  A    between atoms: _450  and  _452
REMARK  180  A    between atoms: _452  and  _453
REMARK  181  A    between atoms: _452  and  _455
REMARK  182  A    between atoms: _455  and  _456
REMARK  183  A    between atoms: _459  and  _461
REMARK  184  A    between atoms: _461  and  _462
REMARK  185  A    between atoms: _461  and  _464
REMARK  186  A    between atoms: _464  and  _465
REMARK  187  A    between atoms: _465  and  _466
REMARK  188  A    between atoms: _469  and  _471
REMARK  189  A    between atoms: _471  and  _472
REMARK  190  A    between atoms: _471  and  _474
REMARK  191  A    between atoms: _474  and  _475
REMARK  192  A    between atoms: _480  and  _481
REMARK  193  A    between atoms: _483  and  _485
REMARK  194  A    between atoms: _485  and  _486
REMARK  195  A    between atoms: _485  and  _488
REMARK  196  A    between atoms: _488  and  _489
REMARK  197  A    between atoms: _489  and  _490
REMARK  198  A    between atoms: _493  and  _495
REMARK  199  A    between atoms: _495  and  _496
REMARK  200  A    between atoms: _495  and  _498
REMARK  201  A    between atoms: _498  and  _499
REMARK  202  A    between atoms: _501  and  _503
REMARK  203  A    between atoms: _503  and  _504
REMARK  204  A    between atoms: _503  and  _506
REMARK  205  A    between atoms: _506  and  _507
REMARK  206  A    between atoms: _513  and  _515
REMARK  207  A    between atoms: _515  and  _516
REMARK  208  A    between atoms: _518  and  _520
REMARK  209  A    between atoms: _520  and  _521
REMARK  210  A    between atoms: _523  and  _525
REMARK  211  A    between atoms: _525  and  _526
REMARK  212  A    between atoms: _525  and  _528
REMARK  213  A    between atoms: _528  and  _529
REMARK  214  A    between atoms: _532  and  _534
REMARK  215  A    between atoms: _534  and  _535
REMARK  216  A    between atoms: _534  and  _537
REMARK  217  A    between atoms: _537  and  _538
REMARK  218  A    between atoms: _541  and  _543
REMARK  219  A    between atoms: _543  and  _544
REMARK  220  A    between atoms: _547  and  _549
REMARK  221  A    between atoms: _549  and  _550
REMARK  222  A    between atoms: _549  and  _552
REMARK  223  A    between atoms: _552  and  _553
REMARK  224  A    between atoms: _558  and  _560
REMARK  225  A    between atoms: _560  and  _561
REMARK  226  A    between atoms: _560  and  _563
REMARK  227  A    between atoms: _563  and  _564
REMARK  228  A    between atoms: _569  and  _571
REMARK  229  A    between atoms: _571  and  _572
REMARK  230  A    between atoms: _571  and  _574
REMARK  231  A    between atoms: _574  and  _575
REMARK  232  A    between atoms: _577  and  _579
REMARK  233  A    between atoms: _579  and  _580
REMARK  234  A    between atoms: _579  and  _582
REMARK  235  A    between atoms: _582  and  _583
REMARK  236  A    between atoms: _583  and  _584
REMARK  237  A    between atoms: _589  and  _591
REMARK  238  A    between atoms: _591  and  _592
REMARK  239  A    between atoms: _591  and  _594
REMARK  240  A    between atoms: _594  and  _595
REMARK  241  A    between atoms: _595  and  _596
REMARK                            x       y       z     vdW  Elec       q    Type
REMARK                         _______ _______ _______ _____ _____    ______ ____
ROOT
ATOM      1  O   HOH     1      25.368  66.641  28.467  0.00  0.00    +0.000 OA
ENDROOT
TORSDOF 0
REMARK  Name = ../refined-set-2016/2zq0/2zq0_pocket.pdb
REMARK  241 active torsions:
REMARK  status: ('A' for Active; 'I' for Inactive)
REMARK    1  A    between atoms: _1  and  _3
REMARK    2  A    between atoms: _3  and  _4
REMARK    3  A    between atoms: _3  and  _6
REMARK    4  A    between atoms: _6  and  _7
REMARK    5  A    between atoms: _10  and  _12
REMARK    6  A    between atoms: _12  and  _13
REMARK    7  A    between atoms: _12  and  _15
REMARK    8  A    between atoms: _15  and  _16
REMARK    9  A    between atoms: _16  and  _17
REMARK   10  A    between atoms: _22  and  _24
REMARK   11  A    between atoms: _24  and  _25
REMARK   12  A    between atoms: _24  and  _27
REMARK   13  A    between atoms: _27  and  _28
REMARK   14  A    between atoms: _28  and  _29
REMARK   15  A    between atoms: _29  and  _31
REMARK   16  A    between atoms: _31  and  CA_598
REMARK   17  A    between atoms: _32  and  _34
REMARK   18  A    between atoms: _34  and  _35
REMARK   19  A    between atoms: _34  and  _37
REMARK   20  A    between atoms: _37  and  _38
REMARK   21  A    between atoms: _42  and  _43
REMARK   22  A    between atoms: _48  and  _50
REMARK   23  A    between atoms: _50  and  _51
REMARK   24  A    between atoms: _50  and  _53
REMARK   25  A    between atoms: _53  and  _54
REMARK   26  A    between atoms: _59  and  _61
REMARK   27  A    between atoms: _61  and  _62
REMARK   28  A    between atoms: _61  and  _64
REMARK   29  A    between atoms: _64  and  _65
REMARK   30  A    between atoms: _67  and  _69
REMARK   31  A    between atoms: _69  and  _70
REMARK   32  A    between atoms: _69  and  _72
REMARK   33  A    between atoms: _72  and  _73
REMARK   34  A    between atoms: _75  and  _77
REMARK   35  A    between atoms: _77  and  _78
REMARK   36  A    between atoms: _77  and  _80
REMARK   37  A    between atoms: _80  and  _81
REMARK   38  A    between atoms: _81  and  _82
REMARK   39  A    between atoms: _87  and  _89
REMARK   40  A    between atoms: _89  and  _90
REMARK   41  A    between atoms: _89  and  _92
REMARK   42  A    between atoms: _92  and  _93
REMARK   43  A    between atoms: _98  and  _99
REMARK   44  A    between atoms: _101  and  _103
REMARK   45  A    between atoms: _103  and  _104
REMARK   46  A    between atoms: _103  and  _106
REMARK   47  A    between atoms: _109  and  _111
REMARK   48  A    between atoms: _111  and  _112
REMARK   49  A    between atoms: _111  and  _114
REMARK   50  A    between atoms: _114  and  _115
REMARK   51  A    between atoms: _125  and  _127
REMARK   52  A    between atoms: _127  and  _128
REMARK   53  A    between atoms: _127  and  _130
REMARK   54  A    between atoms: _130  and  _131
REMARK   55  A    between atoms: _141  and  _143
REMARK   56  A    between atoms: _143  and  _144
REMARK   57  A    between atoms: _143  and  _146
REMARK   58  A    between atoms: _146  and  _147
REMARK   59  A    between atoms: _147  and  _148
REMARK   60  A    between atoms: _150  and  _152
REMARK   61  A    between atoms: _152  and  _153
REMARK   62  A    between atoms: _152  and  _155
REMARK   63  A    between atoms: _155  and  _156
REMARK   64  A    between atoms: _159  and  _161
REMARK   65  A    between atoms: _161  and  _162
REMARK   66  A    between atoms: _161  and  _164
REMARK   67  A    between atoms: _164  and  _165
REMARK   68  A    between atoms: _168  and  _170
REMARK   69  A    between atoms: _170  and  _171
REMARK   70  A    between atoms: _170  and  _173
REMARK   71  A    between atoms: _173  and  _174
REMARK   72  A    between atoms: _184  and  _186
REMARK   73  A    between atoms: _186  and  _187
REMARK   74  A    between atoms: _186  and  _189
REMARK   75  A    between atoms: _189  and  _190
REMARK   76  A    between atoms: _193  and  _195
REMARK   77  A    between atoms: _195  and  _196
REMARK   78  A    between atoms: _195  and  _198
REMARK   79  A    between atoms: _198  and  _199
REMARK   80  A    between atoms: _199  and  _200
REMARK   81  A    between atoms: _203  and  _205
REMARK   82  A    between atoms: _205  and  _206
REMARK   83  A    between atoms: _208  and  _210
REMARK   84  A    between atoms: _210  and  _211
REMARK   85  A    between atoms: _210  and  _213
REMARK   86  A    between atoms: _213  and  _214
REMARK   87  A    between atoms: _224  and  _226
REMARK   88  A    between atoms: _226  and  _227
REMARK   89  A    between atoms: _226  and  _229
REMARK   90  A    between atoms: _229  and  _230
REMARK   91  A    between atoms: _240  and  _242
REMARK   92  A    between atoms: _242  and  _243
REMARK   93  A    between atoms: _242  and  _245
REMARK   94  A    between atoms: _245  and  _246
REMARK   95  A    between atoms: _252  and  _254
REMARK   96  A    between atoms: _254  and  _255
REMARK   97  A    between atoms: _254  and  _257
REMARK   98  A    between atoms: _257  and  _258
REMARK   99  A    between atoms: _264  and  _266
REMARK  100  A    between atoms: _266  and  _267
REMARK  101  A    between atoms: _266  and  _269
REMARK  102  A    between atoms: _269  and  _270
REMARK  103  A    between atoms: _275  and  _277
REMARK  104  A    between atoms: _277  and  _278
REMARK  105  A    between atoms: _277  and  _280
REMARK  106  A    between atoms: _280  and  _281
REMARK  107  A    between atoms: _286  and  _288
REMARK  108  A    between atoms: _288  and  _289
REMARK  109  A    between atoms: _288  and  _291
REMARK  110  A    between atoms: _291  and  _292
REMARK  111  A    between atoms: _292  and  _293
REMARK  112  A    between atoms: _296  and  _298
REMARK  113  A    between atoms: _298  and  _299
REMARK  114  A    between atoms: _298  and  _301
REMARK  115  A    between atoms: _301  and  _302
REMARK  116  A    between atoms: _305  and  _307
REMARK  117  A    between atoms: _307  and  _308
REMARK  118  A    between atoms: _307  and  _310
REMARK  119  A    between atoms: _310  and  _311
REMARK  120  A    between atoms: _313  and  _315
REMARK  121  A    between atoms: _315  and  _316
REMARK  122  A    between atoms: _315  and  _318
REMARK  123  A    between atoms: _318  and  _319
REMARK  124  A    between atoms: _319  and  _320
REMARK  125  A    between atoms: _320  and  _321
REMARK  126  A    between atoms: _321  and  _322
REMARK  127  A    between atoms: _326  and  _328
REMARK  128  A    between atoms: _328  and  _329
REMARK  129  A    between atoms: _328  and  _331
REMARK  130  A    between atoms: _331  and  _332
REMARK  131  A    between atoms: _334  and  _336
REMARK  132  A    between atoms: _336  and  _337
REMARK  133  A    between atoms: _339  and  _341
REMARK  134  A    between atoms: _341  and  _342
REMARK  135  A    between atoms: _341  and  _344
REMARK  136  A    between atoms: _344  and  _345
REMARK  137  A    between atoms: _350  and  _351
REMARK  138  A    between atoms: _353  and  _355
REMARK  139  A    between atoms: _355  and  _356
REMARK  140  A    between atoms: _355  and  _358
REMARK  141  A    between atoms: _361  and  _363
REMARK  142  A    between atoms: _363  and  _364
REMARK  143  A    between atoms: _366  and  _368
REMARK  144  A    between atoms: _368  and  _369
REMARK  145  A    between atoms: _368  and  _371
REMARK  146  A    between atoms: _371  and  _372
REMARK  147  A    between atoms: _377  and  _379
REMARK  148  A    between atoms: _379  and  _380
REMARK  149  A    between atoms: _383  and  _385
REMARK  150  A    between atoms: _385  and  _386
REMARK  151  A    between atoms: _385  and  _388
REMARK  152  A    between atoms: _388  and  _389
REMARK  153  A    between atoms: _394  and  _396
REMARK  154  A    between atoms: _396  and  _397
REMARK  155  A    between atoms: _396  and  _399
REMARK  156  A    between atoms: _399  and  _400
REMARK  157  A    between atoms: _400  and  _401
REMARK  158  A    between atoms: _401  and  _402
REMARK  159  A    between atoms: _402  and  CA_598
REMARK  160  A    between atoms: _404  and  _406
REMARK  161  A    between atoms: _406  and  _407
REMARK  162  A    between atoms: _406  and  _409
REMARK  163  A    between atoms: _409  and  _410
REMARK  164  A    between atoms: _410  and  _411
REMARK  165  A    between atoms: _414  and  _416
REMARK  166  A    between atoms: _416  and  _417
REMARK  167  A    between atoms: _416  and  _419
REMARK  168  A    between atoms: _419  and  _420
REMARK  169  A    between atoms: _422  and  _424
REMARK  170  A    between atoms: _424  and  _425
REMARK  171  A    between atoms: _428  and  _430
REMARK  172  A    between atoms: _430  and  _431
REMARK  173  A    between atoms: _430  and  _433
REMARK  174  A    between atoms: _433  and  _434
REMARK  175  A    between atoms: _434  and  _435
REMARK  176  A    between atoms: _435  and  _436
REMARK  177  A    between atoms: _445  and  _447
REMARK  178  A    between atoms: _447  and  _448
REMARK  179  A    between atoms: _450  and  _452
REMARK  180  A    between atoms: _452  and  _453
REMARK  181  A    between atoms: _452  and  _455
REMARK  182  A    between atoms: _455  and  _456
REMARK  183  A    between atoms: _459  and  _461
REMARK  184  A    between atoms: _461  and  _462
REMARK  185  A    between atoms: _461  and  _464
REMARK  186  A    between atoms: _464  and  _465
REMARK  187  A    between atoms: _465  and  _466
REMARK  188  A    between atoms: _469  and  _471
REMARK  189  A    between atoms: _471  and  _472
REMARK  190  A    between atoms: _471  and  _474
REMARK  191  A    between atoms: _474  and  _475
REMARK  192  A    between atoms: _480  and  _481
REMARK  193  A    between atoms: _483  and  _485
REMARK  194  A    between atoms: _485  and  _486
REMARK  195  A    between atoms: _485  and  _488
REMARK  196  A    between atoms: _488  and  _489
REMARK  197  A    between atoms: _489  and  _490
REMARK  198  A    between atoms: _493  and  _495
REMARK  199  A    between atoms: _495  and  _496
REMARK  200  A    between atoms: _495  and  _498
REMARK  201  A    between atoms: _498  and  _499
REMARK  202  A    between atoms: _501  and  _503
REMARK  203  A    between atoms: _503  and  _504
REMARK  204  A    between atoms: _503  and  _506
REMARK  205  A    between atoms: _506  and  _507
REMARK  206  A    between atoms: _513  and  _515
REMARK  207  A    between atoms: _515  and  _516
REMARK  208  A    between atoms: _518  and  _520
REMARK  209  A    between atoms: _520  and  _521
REMARK  210  A    between atoms: _523  and  _525
REMARK  211  A    between atoms: _525  and  _526
REMARK  212  A    between atoms: _525  and  _528
REMARK  213  A    between atoms: _528  and  _529
REMARK  214  A    between atoms: _532  and  _534
REMARK  215  A    between atoms: _534  and  _535
REMARK  216  A    between atoms: _534  and  _537
REMARK  217  A    between atoms: _537  and  _538
REMARK  218  A    between atoms: _541  and  _543
REMARK  219  A    between atoms: _543  and  _544
REMARK  220  A    between atoms: _547  and  _549
REMARK  221  A    between atoms: _549  and  _550
REMARK  222  A    between atoms: _549  and  _552
REMARK  223  A    between atoms: _552  and  _553
REMARK  224  A    between atoms: _558  and  _560
REMARK  225  A    between atoms: _560  and  _561
REMARK  226  A    between atoms: _560  and  _563
REMARK  227  A    between atoms: _563  and  _564
REMARK  228  A    between atoms: _569  and  _571
REMARK  229  A    between atoms: _571  and  _572
REMARK  230  A    between atoms: _571  and  _574
REMARK  231  A    between atoms: _574  and  _575
REMARK  232  A    between atoms: _577  and  _579
REMARK  233  A    between atoms: _579  and  _580
REMARK  234  A    between atoms: _579  and  _582
REMARK  235  A    between atoms: _582  and  _583
REMARK  236  A    between atoms: _583  and  _584
REMARK  237  A    between atoms: _589  and  _591
REMARK  238  A    between atoms: _591  and  _592
REMARK  239  A    between atoms: _591  and  _594
REMARK  240  A    between atoms: _594  and  _595
REMARK  241  A    between atoms: _595  and  _596
REMARK                            x       y       z     vdW  Elec       q    Type
REMARK                         _______ _______ _______ _____ _____    ______ ____
ROOT
ATOM      1  O   HOH     1      27.240  61.677  42.156  0.00  0.00    +0.000 OA
ENDROOT
TORSDOF 0
REMARK  Name = ../refined-set-2016/2zq0/2zq0_pocket.pdb
REMARK  241 active torsions:
REMARK  status: ('A' for Active; 'I' for Inactive)
REMARK    1  A    between atoms: _1  and  _3
REMARK    2  A    between atoms: _3  and  _4
REMARK    3  A    between atoms: _3  and  _6
REMARK    4  A    between atoms: _6  and  _7
REMARK    5  A    between atoms: _10  and  _12
REMARK    6  A    between atoms: _12  and  _13
REMARK    7  A    between atoms: _12  and  _15
REMARK    8  A    between atoms: _15  and  _16
REMARK    9  A    between atoms: _16  and  _17
REMARK   10  A    between atoms: _22  and  _24
REMARK   11  A    between atoms: _24  and  _25
REMARK   12  A    between atoms: _24  and  _27
REMARK   13  A    between atoms: _27  and  _28
REMARK   14  A    between atoms: _28  and  _29
REMARK   15  A    between atoms: _29  and  _31
REMARK   16  A    between atoms: _31  and  CA_598
REMARK   17  A    between atoms: _32  and  _34
REMARK   18  A    between atoms: _34  and  _35
REMARK   19  A    between atoms: _34  and  _37
REMARK   20  A    between atoms: _37  and  _38
REMARK   21  A    between atoms: _42  and  _43
REMARK   22  A    between atoms: _48  and  _50
REMARK   23  A    between atoms: _50  and  _51
REMARK   24  A    between atoms: _50  and  _53
REMARK   25  A    between atoms: _53  and  _54
REMARK   26  A    between atoms: _59  and  _61
REMARK   27  A    between atoms: _61  and  _62
REMARK   28  A    between atoms: _61  and  _64
REMARK   29  A    between atoms: _64  and  _65
REMARK   30  A    between atoms: _67  and  _69
REMARK   31  A    between atoms: _69  and  _70
REMARK   32  A    between atoms: _69  and  _72
REMARK   33  A    between atoms: _72  and  _73
REMARK   34  A    between atoms: _75  and  _77
REMARK   35  A    between atoms: _77  and  _78
REMARK   36  A    between atoms: _77  and  _80
REMARK   37  A    between atoms: _80  and  _81
REMARK   38  A    between atoms: _81  and  _82
REMARK   39  A    between atoms: _87  and  _89
REMARK   40  A    between atoms: _89  and  _90
REMARK   41  A    between atoms: _89  and  _92
REMARK   42  A    between atoms: _92  and  _93
REMARK   43  A    between atoms: _98  and  _99
REMARK   44  A    between atoms: _101  and  _103
REMARK   45  A    between atoms: _103  and  _104
REMARK   46  A    between atoms: _103  and  _106
REMARK   47  A    between atoms: _109  and  _111
REMARK   48  A    between atoms: _111  and  _112
REMARK   49  A    between atoms: _111  and  _114
REMARK   50  A    between atoms: _114  and  _115
REMARK   51  A    between atoms: _125  and  _127
REMARK   52  A    between atoms: _127  and  _128
REMARK   53  A    between atoms: _127  and  _130
REMARK   54  A    between atoms: _130  and  _131
REMARK   55  A    between atoms: _141  and  _143
REMARK   56  A    between atoms: _143  and  _144
REMARK   57  A    between atoms: _143  and  _146
REMARK   58  A    between atoms: _146  and  _147
REMARK   59  A    between atoms: _147  and  _148
REMARK   60  A    between atoms: _150  and  _152
REMARK   61  A    between atoms: _152  and  _153
REMARK   62  A    between atoms: _152  and  _155
REMARK   63  A    between atoms: _155  and  _156
REMARK   64  A    between atoms: _159  and  _161
REMARK   65  A    between atoms: _161  and  _162
REMARK   66  A    between atoms: _161  and  _164
REMARK   67  A    between atoms: _164  and  _165
REMARK   68  A    between atoms: _168  and  _170
REMARK   69  A    between atoms: _170  and  _171
REMARK   70  A    between atoms: _170  and  _173
REMARK   71  A    between atoms: _173  and  _174
REMARK   72  A    between atoms: _184  and  _186
REMARK   73  A    between atoms: _186  and  _187
REMARK   74  A    between atoms: _186  and  _189
REMARK   75  A    between atoms: _189  and  _190
REMARK   76  A    between atoms: _193  and  _195
REMARK   77  A    between atoms: _195  and  _196
REMARK   78  A    between atoms: _195  and  _198
REMARK   79  A    between atoms: _198  and  _199
REMARK   80  A    between atoms: _199  and  _200
REMARK   81  A    between atoms: _203  and  _205
REMARK   82  A    between atoms: _205  and  _206
REMARK   83  A    between atoms: _208  and  _210
REMARK   84  A    between atoms: _210  and  _211
REMARK   85  A    between atoms: _210  and  _213
REMARK   86  A    between atoms: _213  and  _214
REMARK   87  A    between atoms: _224  and  _226
REMARK   88  A    between atoms: _226  and  _227
REMARK   89  A    between atoms: _226  and  _229
REMARK   90  A    between atoms: _229  and  _230
REMARK   91  A    between atoms: _240  and  _242
REMARK   92  A    between atoms: _242  and  _243
REMARK   93  A    between atoms: _242  and  _245
REMARK   94  A    between atoms: _245  and  _246
REMARK   95  A    between atoms: _252  and  _254
REMARK   96  A    between atoms: _254  and  _255
REMARK   97  A    between atoms: _254  and  _257
REMARK   98  A    between atoms: _257  and  _258
REMARK   99  A    between atoms: _264  and  _266
REMARK  100  A    between atoms: _266  and  _267
REMARK  101  A    between atoms: _266  and  _269
REMARK  102  A    between atoms: _269  and  _270
REMARK  103  A    between atoms: _275  and  _277
REMARK  104  A    between atoms: _277  and  _278
REMARK  105  A    between atoms: _277  and  _280
REMARK  106  A    between atoms: _280  and  _281
REMARK  107  A    between atoms: _286  and  _288
REMARK  108  A    between atoms: _288  and  _289
REMARK  109  A    between atoms: _288  and  _291
REMARK  110  A    between atoms: _291  and  _292
REMARK  111  A    between atoms: _292  and  _293
REMARK  112  A    between atoms: _296  and  _298
REMARK  113  A    between atoms: _298  and  _299
REMARK  114  A    between atoms: _298  and  _301
REMARK  115  A    between atoms: _301  and  _302
REMARK  116  A    between atoms: _305  and  _307
REMARK  117  A    between atoms: _307  and  _308
REMARK  118  A    between atoms: _307  and  _310
REMARK  119  A    between atoms: _310  and  _311
REMARK  120  A    between atoms: _313  and  _315
REMARK  121  A    between atoms: _315  and  _316
REMARK  122  A    between atoms: _315  and  _318
REMARK  123  A    between atoms: _318  and  _319
REMARK  124  A    between atoms: _319  and  _320
REMARK  125  A    between atoms: _320  and  _321
REMARK  126  A    between atoms: _321  and  _322
REMARK  127  A    between atoms: _326  and  _328
REMARK  128  A    between atoms: _328  and  _329
REMARK  129  A    between atoms: _328  and  _331
REMARK  130  A    between atoms: _331  and  _332
REMARK  131  A    between atoms: _334  and  _336
REMARK  132  A    between atoms: _336  and  _337
REMARK  133  A    between atoms: _339  and  _341
REMARK  134  A    between atoms: _341  and  _342
REMARK  135  A    between atoms: _341  and  _344
REMARK  136  A    between atoms: _344  and  _345
REMARK  137  A    between atoms: _350  and  _351
REMARK  138  A    between atoms: _353  and  _355
REMARK  139  A    between atoms: _355  and  _356
REMARK  140  A    between atoms: _355  and  _358
REMARK  141  A    between atoms: _361  and  _363
REMARK  142  A    between atoms: _363  and  _364
REMARK  143  A    between atoms: _366  and  _368
REMARK  144  A    between atoms: _368  and  _369
REMARK  145  A    between atoms: _368  and  _371
REMARK  146  A    between atoms: _371  and  _372
REMARK  147  A    between atoms: _377  and  _379
REMARK  148  A    between atoms: _379  and  _380
REMARK  149  A    between atoms: _383  and  _385
REMARK  150  A    between atoms: _385  and  _386
REMARK  151  A    between atoms: _385  and  _388
REMARK  152  A    between atoms: _388  and  _389
REMARK  153  A    between atoms: _394  and  _396
REMARK  154  A    between atoms: _396  and  _397
REMARK  155  A    between atoms: _396  and  _399
REMARK  156  A    between atoms: _399  and  _400
REMARK  157  A    between atoms: _400  and  _401
REMARK  158  A    between atoms: _401  and  _402
REMARK  159  A    between atoms: _402  and  CA_598
REMARK  160  A    between atoms: _404  and  _406
REMARK  161  A    between atoms: _406  and  _407
REMARK  162  A    between atoms: _406  and  _409
REMARK  163  A    between atoms: _409  and  _410
REMARK  164  A    between atoms: _410  and  _411
REMARK  165  A    between atoms: _414  and  _416
REMARK  166  A    between atoms: _416  and  _417
REMARK  167  A    between atoms: _416  and  _419
REMARK  168  A    between atoms: _419  and  _420
REMARK  169  A    between atoms: _422  and  _424
REMARK  170  A    between atoms: _424  and  _425
REMARK  171  A    between atoms: _428  and  _430
REMARK  172  A    between atoms: _430  and  _431
REMARK  173  A    between atoms: _430  and  _433
REMARK  174  A    between atoms: _433  and  _434
REMARK  175  A    between atoms: _434  and  _435
REMARK  176  A    between atoms: _435  and  _436
REMARK  177  A    between atoms: _445  and  _447
REMARK  178  A    between atoms: _447  and  _448
REMARK  179  A    between atoms: _450  and  _452
REMARK  180  A    between atoms: _452  and  _453
REMARK  181  A    between atoms: _452  and  _455
REMARK  182  A    between atoms: _455  and  _456
REMARK  183  A    between atoms: _459  and  _461
REMARK  184  A    between atoms: _461  and  _462
REMARK  185  A    between atoms: _461  and  _464
REMARK  186  A    between atoms: _464  and  _465
REMARK  187  A    between atoms: _465  and  _466
REMARK  188  A    between atoms: _469  and  _471
REMARK  189  A    between atoms: _471  and  _472
REMARK  190  A    between atoms: _471  and  _474
REMARK  191  A    between atoms: _474  and  _475
REMARK  192  A    between atoms: _480  and  _481
REMARK  193  A    between atoms: _483  and  _485
REMARK  194  A    between atoms: _485  and  _486
REMARK  195  A    between atoms: _485  and  _488
REMARK  196  A    between atoms: _488  and  _489
REMARK  197  A    between atoms: _489  and  _490
REMARK  198  A    between atoms: _493  and  _495
REMARK  199  A    between atoms: _495  and  _496
REMARK  200  A    between atoms: _495  and  _498
REMARK  201  A    between atoms: _498  and  _499
REMARK  202  A    between atoms: _501  and  _503
REMARK  203  A    between atoms: _503  and  _504
REMARK  204  A    between atoms: _503  and  _506
REMARK  205  A    between atoms: _506  and  _507
REMARK  206  A    between atoms: _513  and  _515
REMARK  207  A    between atoms: _515  and  _516
REMARK  208  A    between atoms: _518  and  _520
REMARK  209  A    between atoms: _520  and  _521
REMARK  210  A    between atoms: _523  and  _525
REMARK  211  A    between atoms: _525  and  _526
REMARK  212  A    between atoms: _525  and  _528
REMARK  213  A    between atoms: _528  and  _529
REMARK  214  A    between atoms: _532  and  _534
REMARK  215  A    between atoms: _534  and  _535
REMARK  216  A    between atoms: _534  and  _537
REMARK  217  A    between atoms: _537  and  _538
REMARK  218  A    between atoms: _541  and  _543
REMARK  219  A    between atoms: _543  and  _544
REMARK  220  A    between atoms: _547  and  _549
REMARK  221  A    between atoms: _549  and  _550
REMARK  222  A    between atoms: _549  and  _552
REMARK  223  A    between atoms: _552  and  _553
REMARK  224  A    between atoms: _558  and  _560
REMARK  225  A    between atoms: _560  and  _561
REMARK  226  A    between atoms: _560  and  _563
REMARK  227  A    between atoms: _563  and  _564
REMARK  228  A    between atoms: _569  and  _571
REMARK  229  A    between atoms: _571  and  _572
REMARK  230  A    between atoms: _571  and  _574
REMARK  231  A    between atoms: _574  and  _575
REMARK  232  A    between atoms: _577  and  _579
REMARK  233  A    between atoms: _579  and  _580
REMARK  234  A    between atoms: _579  and  _582
REMARK  235  A    between atoms: _582  and  _583
REMARK  236  A    between atoms: _583  and  _584
REMARK  237  A    between atoms: _589  and  _591
REMARK  238  A    between atoms: _591  and  _592
REMARK  239  A    between atoms: _591  and  _594
REMARK  240  A    between atoms: _594  and  _595
REMARK  241  A    between atoms: _595  and  _596
REMARK                            x       y       z     vdW  Elec       q    Type
REMARK                         _______ _______ _______ _____ _____    ______ ____
ROOT
ATOM      1  O   HOH     1      23.062  52.755  44.550  0.00  0.00    +0.000 OA
ENDROOT
TORSDOF 0
REMARK  Name = ../refined-set-2016/2zq0/2zq0_pocket.pdb
REMARK  241 active torsions:
REMARK  status: ('A' for Active; 'I' for Inactive)
REMARK    1  A    between atoms: _1  and  _3
REMARK    2  A    between atoms: _3  and  _4
REMARK    3  A    between atoms: _3  and  _6
REMARK    4  A    between atoms: _6  and  _7
REMARK    5  A    between atoms: _10  and  _12
REMARK    6  A    between atoms: _12  and  _13
REMARK    7  A    between atoms: _12  and  _15
REMARK    8  A    between atoms: _15  and  _16
REMARK    9  A    between atoms: _16  and  _17
REMARK   10  A    between atoms: _22  and  _24
REMARK   11  A    between atoms: _24  and  _25
REMARK   12  A    between atoms: _24  and  _27
REMARK   13  A    between atoms: _27  and  _28
REMARK   14  A    between atoms: _28  and  _29
REMARK   15  A    between atoms: _29  and  _31
REMARK   16  A    between atoms: _31  and  CA_598
REMARK   17  A    between atoms: _32  and  _34
REMARK   18  A    between atoms: _34  and  _35
REMARK   19  A    between atoms: _34  and  _37
REMARK   20  A    between atoms: _37  and  _38
REMARK   21  A    between atoms: _42  and  _43
REMARK   22  A    between atoms: _48  and  _50
REMARK   23  A    between atoms: _50  and  _51
REMARK   24  A    between atoms: _50  and  _53
REMARK   25  A    between atoms: _53  and  _54
REMARK   26  A    between atoms: _59  and  _61
REMARK   27  A    between atoms: _61  and  _62
REMARK   28  A    between atoms: _61  and  _64
REMARK   29  A    between atoms: _64  and  _65
REMARK   30  A    between atoms: _67  and  _69
REMARK   31  A    between atoms: _69  and  _70
REMARK   32  A    between atoms: _69  and  _72
REMARK   33  A    between atoms: _72  and  _73
REMARK   34  A    between atoms: _75  and  _77
REMARK   35  A    between atoms: _77  and  _78
REMARK   36  A    between atoms: _77  and  _80
REMARK   37  A    between atoms: _80  and  _81
REMARK   38  A    between atoms: _81  and  _82
REMARK   39  A    between atoms: _87  and  _89
REMARK   40  A    between atoms: _89  and  _90
REMARK   41  A    between atoms: _89  and  _92
REMARK   42  A    between atoms: _92  and  _93
REMARK   43  A    between atoms: _98  and  _99
REMARK   44  A    between atoms: _101  and  _103
REMARK   45  A    between atoms: _103  and  _104
REMARK   46  A    between atoms: _103  and  _106
REMARK   47  A    between atoms: _109  and  _111
REMARK   48  A    between atoms: _111  and  _112
REMARK   49  A    between atoms: _111  and  _114
REMARK   50  A    between atoms: _114  and  _115
REMARK   51  A    between atoms: _125  and  _127
REMARK   52  A    between atoms: _127  and  _128
REMARK   53  A    between atoms: _127  and  _130
REMARK   54  A    between atoms: _130  and  _131
REMARK   55  A    between atoms: _141  and  _143
REMARK   56  A    between atoms: _143  and  _144
REMARK   57  A    between atoms: _143  and  _146
REMARK   58  A    between atoms: _146  and  _147
REMARK   59  A    between atoms: _147  and  _148
REMARK   60  A    between atoms: _150  and  _152
REMARK   61  A    between atoms: _152  and  _153
REMARK   62  A    between atoms: _152  and  _155
REMARK   63  A    between atoms: _155  and  _156
REMARK   64  A    between atoms: _159  and  _161
REMARK   65  A    between atoms: _161  and  _162
REMARK   66  A    between atoms: _161  and  _164
REMARK   67  A    between atoms: _164  and  _165
REMARK   68  A    between atoms: _168  and  _170
REMARK   69  A    between atoms: _170  and  _171
REMARK   70  A    between atoms: _170  and  _173
REMARK   71  A    between atoms: _173  and  _174
REMARK   72  A    between atoms: _184  and  _186
REMARK   73  A    between atoms: _186  and  _187
REMARK   74  A    between atoms: _186  and  _189
REMARK   75  A    between atoms: _189  and  _190
REMARK   76  A    between atoms: _193  and  _195
REMARK   77  A    between atoms: _195  and  _196
REMARK   78  A    between atoms: _195  and  _198
REMARK   79  A    between atoms: _198  and  _199
REMARK   80  A    between atoms: _199  and  _200
REMARK   81  A    between atoms: _203  and  _205
REMARK   82  A    between atoms: _205  and  _206
REMARK   83  A    between atoms: _208  and  _210
REMARK   84  A    between atoms: _210  and  _211
REMARK   85  A    between atoms: _210  and  _213
REMARK   86  A    between atoms: _213  and  _214
REMARK   87  A    between atoms: _224  and  _226
REMARK   88  A    between atoms: _226  and  _227
REMARK   89  A    between atoms: _226  and  _229
REMARK   90  A    between atoms: _229  and  _230
REMARK   91  A    between atoms: _240  and  _242
REMARK   92  A    between atoms: _242  and  _243
REMARK   93  A    between atoms: _242  and  _245
REMARK   94  A    between atoms: _245  and  _246
REMARK   95  A    between atoms: _252  and  _254
REMARK   96  A    between atoms: _254  and  _255
REMARK   97  A    between atoms: _254  and  _257
REMARK   98  A    between atoms: _257  and  _258
REMARK   99  A    between atoms: _264  and  _266
REMARK  100  A    between atoms: _266  and  _267
REMARK  101  A    between atoms: _266  and  _269
REMARK  102  A    between atoms: _269  and  _270
REMARK  103  A    between atoms: _275  and  _277
REMARK  104  A    between atoms: _277  and  _278
REMARK  105  A    between atoms: _277  and  _280
REMARK  106  A    between atoms: _280  and  _281
REMARK  107  A    between atoms: _286  and  _288
REMARK  108  A    between atoms: _288  and  _289
REMARK  109  A    between atoms: _288  and  _291
REMARK  110  A    between atoms: _291  and  _292
REMARK  111  A    between atoms: _292  and  _293
REMARK  112  A    between atoms: _296  and  _298
REMARK  113  A    between atoms: _298  and  _299
REMARK  114  A    between atoms: _298  and  _301
REMARK  115  A    between atoms: _301  and  _302
REMARK  116  A    between atoms: _305  and  _307
REMARK  117  A    between atoms: _307  and  _308
REMARK  118  A    between atoms: _307  and  _310
REMARK  119  A    between atoms: _310  and  _311
REMARK  120  A    between atoms: _313  and  _315
REMARK  121  A    between atoms: _315  and  _316
REMARK  122  A    between atoms: _315  and  _318
REMARK  123  A    between atoms: _318  and  _319
REMARK  124  A    between atoms: _319  and  _320
REMARK  125  A    between atoms: _320  and  _321
REMARK  126  A    between atoms: _321  and  _322
REMARK  127  A    between atoms: _326  and  _328
REMARK  128  A    between atoms: _328  and  _329
REMARK  129  A    between atoms: _328  and  _331
REMARK  130  A    between atoms: _331  and  _332
REMARK  131  A    between atoms: _334  and  _336
REMARK  132  A    between atoms: _336  and  _337
REMARK  133  A    between atoms: _339  and  _341
REMARK  134  A    between atoms: _341  and  _342
REMARK  135  A    between atoms: _341  and  _344
REMARK  136  A    between atoms: _344  and  _345
REMARK  137  A    between atoms: _350  and  _351
REMARK  138  A    between atoms: _353  and  _355
REMARK  139  A    between atoms: _355  and  _356
REMARK  140  A    between atoms: _355  and  _358
REMARK  141  A    between atoms: _361  and  _363
REMARK  142  A    between atoms: _363  and  _364
REMARK  143  A    between atoms: _366  and  _368
REMARK  144  A    between atoms: _368  and  _369
REMARK  145  A    between atoms: _368  and  _371
REMARK  146  A    between atoms: _371  and  _372
REMARK  147  A    between atoms: _377  and  _379
REMARK  148  A    between atoms: _379  and  _380
REMARK  149  A    between atoms: _383  and  _385
REMARK  150  A    between atoms: _385  and  _386
REMARK  151  A    between atoms: _385  and  _388
REMARK  152  A    between atoms: _388  and  _389
REMARK  153  A    between atoms: _394  and  _396
REMARK  154  A    between atoms: _396  and  _397
REMARK  155  A    between atoms: _396  and  _399
REMARK  156  A    between atoms: _399  and  _400
REMARK  157  A    between atoms: _400  and  _401
REMARK  158  A    between atoms: _401  and  _402
REMARK  159  A    between atoms: _402  and  CA_598
REMARK  160  A    between atoms: _404  and  _406
REMARK  161  A    between atoms: _406  and  _407
REMARK  162  A    between atoms: _406  and  _409
REMARK  163  A    between atoms: _409  and  _410
REMARK  164  A    between atoms: _410  and  _411
REMARK  165  A    between atoms: _414  and  _416
REMARK  166  A    between atoms: _416  and  _417
REMARK  167  A    between atoms: _416  and  _419
REMARK  168  A    between atoms: _419  and  _420
REMARK  169  A    between atoms: _422  and  _424
REMARK  170  A    between atoms: _424  and  _425
REMARK  171  A    between atoms: _428  and  _430
REMARK  172  A    between atoms: _430  and  _431
REMARK  173  A    between atoms: _430  and  _433
REMARK  174  A    between atoms: _433  and  _434
REMARK  175  A    between atoms: _434  and  _435
REMARK  176  A    between atoms: _435  and  _436
REMARK  177  A    between atoms: _445  and  _447
REMARK  178  A    between atoms: _447  and  _448
REMARK  179  A    between atoms: _450  and  _452
REMARK  180  A    between atoms: _452  and  _453
REMARK  181  A    between atoms: _452  and  _455
REMARK  182  A    between atoms: _455  and  _456
REMARK  183  A    between atoms: _459  and  _461
REMARK  184  A    between atoms: _461  and  _462
REMARK  185  A    between atoms: _461  and  _464
REMARK  186  A    between atoms: _464  and  _465
REMARK  187  A    between atoms: _465  and  _466
REMARK  188  A    between atoms: _469  and  _471
REMARK  189  A    between atoms: _471  and  _472
REMARK  190  A    between atoms: _471  and  _474
REMARK  191  A    between atoms: _474  and  _475
REMARK  192  A    between atoms: _480  and  _481
REMARK  193  A    between atoms: _483  and  _485
REMARK  194  A    between atoms: _485  and  _486
REMARK  195  A    between atoms: _485  and  _488
REMARK  196  A    between atoms: _488  and  _489
REMARK  197  A    between atoms: _489  and  _490
REMARK  198  A    between atoms: _493  and  _495
REMARK  199  A    between atoms: _495  and  _496
REMARK  200  A    between atoms: _495  and  _498
REMARK  201  A    between atoms: _498  and  _499
REMARK  202  A    between atoms: _501  and  _503
REMARK  203  A    between atoms: _503  and  _504
REMARK  204  A    between atoms: _503  and  _506
REMARK  205  A    between atoms: _506  and  _507
REMARK  206  A    between atoms: _513  and  _515
REMARK  207  A    between atoms: _515  and  _516
REMARK  208  A    between atoms: _518  and  _520
REMARK  209  A    between atoms: _520  and  _521
REMARK  210  A    between atoms: _523  and  _525
REMARK  211  A    between atoms: _525  and  _526
REMARK  212  A    between atoms: _525  and  _528
REMARK  213  A    between atoms: _528  and  _529
REMARK  214  A    between atoms: _532  and  _534
REMARK  215  A    between atoms: _534  and  _535
REMARK  216  A    between atoms: _534  and  _537
REMARK  217  A    between atoms: _537  and  _538
REMARK  218  A    between atoms: _541  and  _543
REMARK  219  A    between atoms: _543  and  _544
REMARK  220  A    between atoms: _547  and  _549
REMARK  221  A    between atoms: _549  and  _550
REMARK  222  A    between atoms: _549  and  _552
REMARK  223  A    between atoms: _552  and  _553
REMARK  224  A    between atoms: _558  and  _560
REMARK  225  A    between atoms: _560  and  _561
REMARK  226  A    between atoms: _560  and  _563
REMARK  227  A    between atoms: _563  and  _564
REMARK  228  A    between atoms: _569  and  _571
REMARK  229  A    between atoms: _571  and  _572
REMARK  230  A    between atoms: _571  and  _574
REMARK  231  A    between atoms: _574  and  _575
REMARK  232  A    between atoms: _577  and  _579
REMARK  233  A    between atoms: _579  and  _580
REMARK  234  A    between atoms: _579  and  _582
REMARK  235  A    between atoms: _582  and  _583
REMARK  236  A    between atoms: _583  and  _584
REMARK  237  A    between atoms: _589  and  _591
REMARK  238  A    between atoms: _591  and  _592
REMARK  239  A    between atoms: _591  and  _594
REMARK  240  A    between atoms: _594  and  _595
REMARK  241  A    between atoms: _595  and  _596
REMARK                            x       y       z     vdW  Elec       q    Type
REMARK                         _______ _______ _______ _____ _____    ______ ____
ROOT
ATOM      1  O   HOH     1      15.654  53.805  36.161  0.00  0.00    +0.000 OA
ENDROOT
TORSDOF 0
REMARK  Name = ../refined-set-2016/2zq0/2zq0_pocket.pdb
REMARK  241 active torsions:
REMARK  status: ('A' for Active; 'I' for Inactive)
REMARK    1  A    between atoms: _1  and  _3
REMARK    2  A    between atoms: _3  and  _4
REMARK    3  A    between atoms: _3  and  _6
REMARK    4  A    between atoms: _6  and  _7
REMARK    5  A    between atoms: _10  and  _12
REMARK    6  A    between atoms: _12  and  _13
REMARK    7  A    between atoms: _12  and  _15
REMARK    8  A    between atoms: _15  and  _16
REMARK    9  A    between atoms: _16  and  _17
REMARK   10  A    between atoms: _22  and  _24
REMARK   11  A    between atoms: _24  and  _25
REMARK   12  A    between atoms: _24  and  _27
REMARK   13  A    between atoms: _27  and  _28
REMARK   14  A    between atoms: _28  and  _29
REMARK   15  A    between atoms: _29  and  _31
REMARK   16  A    between atoms: _31  and  CA_598
REMARK   17  A    between atoms: _32  and  _34
REMARK   18  A    between atoms: _34  and  _35
REMARK   19  A    between atoms: _34  and  _37
REMARK   20  A    between atoms: _37  and  _38
REMARK   21  A    between atoms: _42  and  _43
REMARK   22  A    between atoms: _48  and  _50
REMARK   23  A    between atoms: _50  and  _51
REMARK   24  A    between atoms: _50  and  _53
REMARK   25  A    between atoms: _53  and  _54
REMARK   26  A    between atoms: _59  and  _61
REMARK   27  A    between atoms: _61  and  _62
REMARK   28  A    between atoms: _61  and  _64
REMARK   29  A    between atoms: _64  and  _65
REMARK   30  A    between atoms: _67  and  _69
REMARK   31  A    between atoms: _69  and  _70
REMARK   32  A    between atoms: _69  and  _72
REMARK   33  A    between atoms: _72  and  _73
REMARK   34  A    between atoms: _75  and  _77
REMARK   35  A    between atoms: _77  and  _78
REMARK   36  A    between atoms: _77  and  _80
REMARK   37  A    between atoms: _80  and  _81
REMARK   38  A    between atoms: _81  and  _82
REMARK   39  A    between atoms: _87  and  _89
REMARK   40  A    between atoms: _89  and  _90
REMARK   41  A    between atoms: _89  and  _92
REMARK   42  A    between atoms: _92  and  _93
REMARK   43  A    between atoms: _98  and  _99
REMARK   44  A    between atoms: _101  and  _103
REMARK   45  A    between atoms: _103  and  _104
REMARK   46  A    between atoms: _103  and  _106
REMARK   47  A    between atoms: _109  and  _111
REMARK   48  A    between atoms: _111  and  _112
REMARK   49  A    between atoms: _111  and  _114
REMARK   50  A    between atoms: _114  and  _115
REMARK   51  A    between atoms: _125  and  _127
REMARK   52  A    between atoms: _127  and  _128
REMARK   53  A    between atoms: _127  and  _130
REMARK   54  A    between atoms: _130  and  _131
REMARK   55  A    between atoms: _141  and  _143
REMARK   56  A    between atoms: _143  and  _144
REMARK   57  A    between atoms: _143  and  _146
REMARK   58  A    between atoms: _146  and  _147
REMARK   59  A    between atoms: _147  and  _148
REMARK   60  A    between atoms: _150  and  _152
REMARK   61  A    between atoms: _152  and  _153
REMARK   62  A    between atoms: _152  and  _155
REMARK   63  A    between atoms: _155  and  _156
REMARK   64  A    between atoms: _159  and  _161
REMARK   65  A    between atoms: _161  and  _162
REMARK   66  A    between atoms: _161  and  _164
REMARK   67  A    between atoms: _164  and  _165
REMARK   68  A    between atoms: _168  and  _170
REMARK   69  A    between atoms: _170  and  _171
REMARK   70  A    between atoms: _170  and  _173
REMARK   71  A    between atoms: _173  and  _174
REMARK   72  A    between atoms: _184  and  _186
REMARK   73  A    between atoms: _186  and  _187
REMARK   74  A    between atoms: _186  and  _189
REMARK   75  A    between atoms: _189  and  _190
REMARK   76  A    between atoms: _193  and  _195
REMARK   77  A    between atoms: _195  and  _196
REMARK   78  A    between atoms: _195  and  _198
REMARK   79  A    between atoms: _198  and  _199
REMARK   80  A    between atoms: _199  and  _200
REMARK   81  A    between atoms: _203  and  _205
REMARK   82  A    between atoms: _205  and  _206
REMARK   83  A    between atoms: _208  and  _210
REMARK   84  A    between atoms: _210  and  _211
REMARK   85  A    between atoms: _210  and  _213
REMARK   86  A    between atoms: _213  and  _214
REMARK   87  A    between atoms: _224  and  _226
REMARK   88  A    between atoms: _226  and  _227
REMARK   89  A    between atoms: _226  and  _229
REMARK   90  A    between atoms: _229  and  _230
REMARK   91  A    between atoms: _240  and  _242
REMARK   92  A    between atoms: _242  and  _243
REMARK   93  A    between atoms: _242  and  _245
REMARK   94  A    between atoms: _245  and  _246
REMARK   95  A    between atoms: _252  and  _254
REMARK   96  A    between atoms: _254  and  _255
REMARK   97  A    between atoms: _254  and  _257
REMARK   98  A    between atoms: _257  and  _258
REMARK   99  A    between atoms: _264  and  _266
REMARK  100  A    between atoms: _266  and  _267
REMARK  101  A    between atoms: _266  and  _269
REMARK  102  A    between atoms: _269  and  _270
REMARK  103  A    between atoms: _275  and  _277
REMARK  104  A    between atoms: _277  and  _278
REMARK  105  A    between atoms: _277  and  _280
REMARK  106  A    between atoms: _280  and  _281
REMARK  107  A    between atoms: _286  and  _288
REMARK  108  A    between atoms: _288  and  _289
REMARK  109  A    between atoms: _288  and  _291
REMARK  110  A    between atoms: _291  and  _292
REMARK  111  A    between atoms: _292  and  _293
REMARK  112  A    between atoms: _296  and  _298
REMARK  113  A    between atoms: _298  and  _299
REMARK  114  A    between atoms: _298  and  _301
REMARK  115  A    between atoms: _301  and  _302
REMARK  116  A    between atoms: _305  and  _307
REMARK  117  A    between atoms: _307  and  _308
REMARK  118  A    between atoms: _307  and  _310
REMARK  119  A    between atoms: _310  and  _311
REMARK  120  A    between atoms: _313  and  _315
REMARK  121  A    between atoms: _315  and  _316
REMARK  122  A    between atoms: _315  and  _318
REMARK  123  A    between atoms: _318  and  _319
REMARK  124  A    between atoms: _319  and  _320
REMARK  125  A    between atoms: _320  and  _321
REMARK  126  A    between atoms: _321  and  _322
REMARK  127  A    between atoms: _326  and  _328
REMARK  128  A    between atoms: _328  and  _329
REMARK  129  A    between atoms: _328  and  _331
REMARK  130  A    between atoms: _331  and  _332
REMARK  131  A    between atoms: _334  and  _336
REMARK  132  A    between atoms: _336  and  _337
REMARK  133  A    between atoms: _339  and  _341
REMARK  134  A    between atoms: _341  and  _342
REMARK  135  A    between atoms: _341  and  _344
REMARK  136  A    between atoms: _344  and  _345
REMARK  137  A    between atoms: _350  and  _351
REMARK  138  A    between atoms: _353  and  _355
REMARK  139  A    between atoms: _355  and  _356
REMARK  140  A    between atoms: _355  and  _358
REMARK  141  A    between atoms: _361  and  _363
REMARK  142  A    between atoms: _363  and  _364
REMARK  143  A    between atoms: _366  and  _368
REMARK  144  A    between atoms: _368  and  _369
REMARK  145  A    between atoms: _368  and  _371
REMARK  146  A    between atoms: _371  and  _372
REMARK  147  A    between atoms: _377  and  _379
REMARK  148  A    between atoms: _379  and  _380
REMARK  149  A    between atoms: _383  and  _385
REMARK  150  A    between atoms: _385  and  _386
REMARK  151  A    between atoms: _385  and  _388
REMARK  152  A    between atoms: _388  and  _389
REMARK  153  A    between atoms: _394  and  _396
REMARK  154  A    between atoms: _396  and  _397
REMARK  155  A    between atoms: _396  and  _399
REMARK  156  A    between atoms: _399  and  _400
REMARK  157  A    between atoms: _400  and  _401
REMARK  158  A    between atoms: _401  and  _402
REMARK  159  A    between atoms: _402  and  CA_598
REMARK  160  A    between atoms: _404  and  _406
REMARK  161  A    between atoms: _406  and  _407
REMARK  162  A    between atoms: _406  and  _409
REMARK  163  A    between atoms: _409  and  _410
REMARK  164  A    between atoms: _410  and  _411
REMARK  165  A    between atoms: _414  and  _416
REMARK  166  A    between atoms: _416  and  _417
REMARK  167  A    between atoms: _416  and  _419
REMARK  168  A    between atoms: _419  and  _420
REMARK  169  A    between atoms: _422  and  _424
REMARK  170  A    between atoms: _424  and  _425
REMARK  171  A    between atoms: _428  and  _430
REMARK  172  A    between atoms: _430  and  _431
REMARK  173  A    between atoms: _430  and  _433
REMARK  174  A    between atoms: _433  and  _434
REMARK  175  A    between atoms: _434  and  _435
REMARK  176  A    between atoms: _435  and  _436
REMARK  177  A    between atoms: _445  and  _447
REMARK  178  A    between atoms: _447  and  _448
REMARK  179  A    between atoms: _450  and  _452
REMARK  180  A    between atoms: _452  and  _453
REMARK  181  A    between atoms: _452  and  _455
REMARK  182  A    between atoms: _455  and  _456
REMARK  183  A    between atoms: _459  and  _461
REMARK  184  A    between atoms: _461  and  _462
REMARK  185  A    between atoms: _461  and  _464
REMARK  186  A    between atoms: _464  and  _465
REMARK  187  A    between atoms: _465  and  _466
REMARK  188  A    between atoms: _469  and  _471
REMARK  189  A    between atoms: _471  and  _472
REMARK  190  A    between atoms: _471  and  _474
REMARK  191  A    between atoms: _474  and  _475
REMARK  192  A    between atoms: _480  and  _481
REMARK  193  A    between atoms: _483  and  _485
REMARK  194  A    between atoms: _485  and  _486
REMARK  195  A    between atoms: _485  and  _488
REMARK  196  A    between atoms: _488  and  _489
REMARK  197  A    between atoms: _489  and  _490
REMARK  198  A    between atoms: _493  and  _495
REMARK  199  A    between atoms: _495  and  _496
REMARK  200  A    between atoms: _495  and  _498
REMARK  201  A    between atoms: _498  and  _499
REMARK  202  A    between atoms: _501  and  _503
REMARK  203  A    between atoms: _503  and  _504
REMARK  204  A    between atoms: _503  and  _506
REMARK  205  A    between atoms: _506  and  _507
REMARK  206  A    between atoms: _513  and  _515
REMARK  207  A    between atoms: _515  and  _516
REMARK  208  A    between atoms: _518  and  _520
REMARK  209  A    between atoms: _520  and  _521
REMARK  210  A    between atoms: _523  and  _525
REMARK  211  A    between atoms: _525  and  _526
REMARK  212  A    between atoms: _525  and  _528
REMARK  213  A    between atoms: _528  and  _529
REMARK  214  A    between atoms: _532  and  _534
REMARK  215  A    between atoms: _534  and  _535
REMARK  216  A    between atoms: _534  and  _537
REMARK  217  A    between atoms: _537  and  _538
REMARK  218  A    between atoms: _541  and  _543
REMARK  219  A    between atoms: _543  and  _544
REMARK  220  A    between atoms: _547  and  _549
REMARK  221  A    between atoms: _549  and  _550
REMARK  222  A    between atoms: _549  and  _552
REMARK  223  A    between atoms: _552  and  _553
REMARK  224  A    between atoms: _558  and  _560
REMARK  225  A    between atoms: _560  and  _561
REMARK  226  A    between atoms: _560  and  _563
REMARK  227  A    between atoms: _563  and  _564
REMARK  228  A    between atoms: _569  and  _571
REMARK  229  A    between atoms: _571  and  _572
REMARK  230  A    between atoms: _571  and  _574
REMARK  231  A    between atoms: _574  and  _575
REMARK  232  A    between atoms: _577  and  _579
REMARK  233  A    between atoms: _579  and  _580
REMARK  234  A    between atoms: _579  and  _582
REMARK  235  A    between atoms: _582  and  _583
REMARK  236  A    between atoms: _583  and  _584
REMARK  237  A    between atoms: _589  and  _591
REMARK  238  A    between atoms: _591  and  _592
REMARK  239  A    between atoms: _591  and  _594
REMARK  240  A    between atoms: _594  and  _595
REMARK  241  A    between atoms: _595  and  _596
REMARK                            x       y       z     vdW  Elec       q    Type
REMARK                         _______ _______ _______ _____ _____    ______ ____
ROOT
ATOM      1  O   HOH     1      28.215  60.577  44.292  0.00  0.00    +0.000 OA
ENDROOT
TORSDOF 0
