REMARK  Name = ../refined-set-2016/1xh5/1xh5_pocket.pdb
REMARK  251 active torsions:
REMARK  status: ('A' for Active; 'I' for Inactive)
REMARK    1  A    between atoms: _1  and  _3
REMARK    2  A    between atoms: _3  and  _4
REMARK    3  A    between atoms: _3  and  _6
REMARK    4  A    between atoms: _6  and  _7
REMARK    5  A    between atoms: _10  and  _12
REMARK    6  A    between atoms: _12  and  _13
REMARK    7  A    between atoms: _12  and  _15
REMARK    8  A    between atoms: _15  and  _16
REMARK    9  A    between atoms: _19  and  _21
REMARK   10  A    between atoms: _21  and  _22
REMARK   11  A    between atoms: _24  and  _26
REMARK   12  A    between atoms: _26  and  _27
REMARK   13  A    between atoms: _26  and  _29
REMARK   14  A    between atoms: _29  and  _30
REMARK   15  A    between atoms: _33  and  _35
REMARK   16  A    between atoms: _35  and  _36
REMARK   17  A    between atoms: _38  and  _40
REMARK   18  A    between atoms: _40  and  _41
REMARK   19  A    between atoms: _40  and  _43
REMARK   20  A    between atoms: _43  and  _44
REMARK   21  A    between atoms: _46  and  _48
REMARK   22  A    between atoms: _48  and  _49
REMARK   23  A    between atoms: _48  and  _51
REMARK   24  A    between atoms: _51  and  _52
REMARK   25  A    between atoms: _58  and  _60
REMARK   26  A    between atoms: _60  and  _61
REMARK   27  A    between atoms: _63  and  _65
REMARK   28  A    between atoms: _65  and  _66
REMARK   29  A    between atoms: _65  and  _68
REMARK   30  A    between atoms: _68  and  _69
REMARK   31  A    between atoms: _69  and  _70
REMARK   32  A    between atoms: _70  and  _71
REMARK   33  A    between atoms: _80  and  _82
REMARK   34  A    between atoms: _82  and  _83
REMARK   35  A    between atoms: _82  and  _85
REMARK   36  A    between atoms: _88  and  _90
REMARK   37  A    between atoms: _90  and  _91
REMARK   38  A    between atoms: _90  and  _93
REMARK   39  A    between atoms: _93  and  _94
REMARK   40  A    between atoms: _94  and  _95
REMARK   41  A    between atoms: _97  and  _99
REMARK   42  A    between atoms: _99  and  _100
REMARK   43  A    between atoms: _99  and  _102
REMARK   44  A    between atoms: _102  and  _103
REMARK   45  A    between atoms: _106  and  _108
REMARK   46  A    between atoms: _108  and  _109
REMARK   47  A    between atoms: _108  and  _111
REMARK   48  A    between atoms: _111  and  _112
REMARK   49  A    between atoms: _117  and  _118
REMARK   50  A    between atoms: _120  and  _122
REMARK   51  A    between atoms: _122  and  _123
REMARK   52  A    between atoms: _126  and  _128
REMARK   53  A    between atoms: _128  and  _129
REMARK   54  A    between atoms: _128  and  _131
REMARK   55  A    between atoms: _131  and  _132
REMARK   56  A    between atoms: _132  and  _133
REMARK   57  A    between atoms: _135  and  _137
REMARK   58  A    between atoms: _137  and  _138
REMARK   59  A    between atoms: _137  and  _140
REMARK   60  A    between atoms: _140  and  _141
REMARK   61  A    between atoms: _141  and  _142
REMARK   62  A    between atoms: _142  and  _143
REMARK   63  A    between atoms: _143  and  _144
REMARK   64  A    between atoms: _148  and  _150
REMARK   65  A    between atoms: _150  and  _151
REMARK   66  A    between atoms: _150  and  _153
REMARK   67  A    between atoms: _153  and  _154
REMARK   68  A    between atoms: _157  and  _159
REMARK   69  A    between atoms: _159  and  _160
REMARK   70  A    between atoms: _159  and  _162
REMARK   71  A    between atoms: _162  and  _163
REMARK   72  A    between atoms: _166  and  _168
REMARK   73  A    between atoms: _168  and  _169
REMARK   74  A    between atoms: _168  and  _171
REMARK   75  A    between atoms: _171  and  _172
REMARK   76  A    between atoms: _175  and  _177
REMARK   77  A    between atoms: _177  and  _178
REMARK   78  A    between atoms: _177  and  _180
REMARK   79  A    between atoms: _180  and  _181
REMARK   80  A    between atoms: _181  and  _182
REMARK   81  A    between atoms: _182  and  _183
REMARK   82  A    between atoms: _183  and  _184
REMARK   83  A    between atoms: _188  and  _190
REMARK   84  A    between atoms: _190  and  _191
REMARK   85  A    between atoms: _190  and  _193
REMARK   86  A    between atoms: _196  and  _198
REMARK   87  A    between atoms: _198  and  _199
REMARK   88  A    between atoms: _198  and  _201
REMARK   89  A    between atoms: _201  and  _202
REMARK   90  A    between atoms: _205  and  _207
REMARK   91  A    between atoms: _207  and  _208
REMARK   92  A    between atoms: _207  and  _210
REMARK   93  A    between atoms: _210  and  _211
REMARK   94  A    between atoms: _211  and  _212
REMARK   95  A    between atoms: _212  and  _213
REMARK   96  A    between atoms: _213  and  _214
REMARK   97  A    between atoms: _218  and  _220
REMARK   98  A    between atoms: _220  and  _221
REMARK   99  A    between atoms: _220  and  _223
REMARK  100  A    between atoms: _223  and  _224
REMARK  101  A    between atoms: _224  and  _225
REMARK  102  A    between atoms: _230  and  _232
REMARK  103  A    between atoms: _232  and  _233
REMARK  104  A    between atoms: _232  and  _235
REMARK  105  A    between atoms: _235  and  _236
REMARK  106  A    between atoms: _241  and  _243
REMARK  107  A    between atoms: _243  and  _244
REMARK  108  A    between atoms: _243  and  _246
REMARK  109  A    between atoms: _246  and  _247
REMARK  110  A    between atoms: _250  and  _252
REMARK  111  A    between atoms: _252  and  _253
REMARK  112  A    between atoms: _252  and  _255
REMARK  113  A    between atoms: _255  and  _256
REMARK  114  A    between atoms: _256  and  _257
REMARK  115  A    between atoms: _260  and  _262
REMARK  116  A    between atoms: _262  and  _263
REMARK  117  A    between atoms: _262  and  _265
REMARK  118  A    between atoms: _265  and  _266
REMARK  119  A    between atoms: _269  and  _271
REMARK  120  A    between atoms: _271  and  _272
REMARK  121  A    between atoms: _271  and  _274
REMARK  122  A    between atoms: _277  and  _279
REMARK  123  A    between atoms: _279  and  _280
REMARK  124  A    between atoms: _279  and  _282
REMARK  125  A    between atoms: _282  and  _283
REMARK  126  A    between atoms: _283  and  _284
REMARK  127  A    between atoms: _284  and  _285
REMARK  128  A    between atoms: _285  and  _286
REMARK  129  A    between atoms: _290  and  _292
REMARK  130  A    between atoms: _292  and  _293
REMARK  131  A    between atoms: _292  and  _295
REMARK  132  A    between atoms: _295  and  _296
REMARK  133  A    between atoms: _296  and  _297
REMARK  134  A    between atoms: _299  and  _301
REMARK  135  A    between atoms: _301  and  _302
REMARK  136  A    between atoms: _301  and  _304
REMARK  137  A    between atoms: _304  and  _305
REMARK  138  A    between atoms: _305  and  _306
REMARK  139  A    between atoms: _308  and  _310
REMARK  140  A    between atoms: _310  and  _311
REMARK  141  A    between atoms: _310  and  _313
REMARK  142  A    between atoms: _313  and  _314
REMARK  143  A    between atoms: _314  and  _315
REMARK  144  A    between atoms: _318  and  _320
REMARK  145  A    between atoms: _320  and  _321
REMARK  146  A    between atoms: _320  and  _323
REMARK  147  A    between atoms: _323  and  _324
REMARK  148  A    between atoms: _329  and  _330
REMARK  149  A    between atoms: _332  and  _334
REMARK  150  A    between atoms: _334  and  _335
REMARK  151  A    between atoms: _334  and  _337
REMARK  152  A    between atoms: _341  and  _342
REMARK  153  A    between atoms: _347  and  _349
REMARK  154  A    between atoms: _349  and  _350
REMARK  155  A    between atoms: _352  and  _354
REMARK  156  A    between atoms: _354  and  _355
REMARK  157  A    between atoms: _357  and  _359
REMARK  158  A    between atoms: _359  and  _360
REMARK  159  A    between atoms: _359  and  _362
REMARK  160  A    between atoms: _362  and  _363
REMARK  161  A    between atoms: _363  and  _364
REMARK  162  A    between atoms: _367  and  _369
REMARK  163  A    between atoms: _369  and  _370
REMARK  164  A    between atoms: _369  and  _372
REMARK  165  A    between atoms: _372  and  _373
REMARK  166  A    between atoms: _373  and  _374
REMARK  167  A    between atoms: _376  and  _378
REMARK  168  A    between atoms: _378  and  _379
REMARK  169  A    between atoms: _378  and  _381
REMARK  170  A    between atoms: _381  and  _382
REMARK  171  A    between atoms: _388  and  _390
REMARK  172  A    between atoms: _390  and  _391
REMARK  173  A    between atoms: _390  and  _393
REMARK  174  A    between atoms: _393  and  _394
REMARK  175  A    between atoms: _399  and  _400
REMARK  176  A    between atoms: _402  and  _404
REMARK  177  A    between atoms: _404  and  _405
REMARK  178  A    between atoms: _404  and  _407
REMARK  179  A    between atoms: _407  and  _408
REMARK  180  A    between atoms: _411  and  _413
REMARK  181  A    between atoms: _413  and  _414
REMARK  182  A    between atoms: _413  and  _416
REMARK  183  A    between atoms: _416  and  _417
REMARK  184  A    between atoms: _417  and  _418
REMARK  185  A    between atoms: _418  and  _419
REMARK  186  A    between atoms: _419  and  _420
REMARK  187  A    between atoms: _425  and  _426
REMARK  188  A    between atoms: _431  and  _433
REMARK  189  A    between atoms: _433  and  _434
REMARK  190  A    between atoms: _433  and  _436
REMARK  191  A    between atoms: _436  and  _437
REMARK  192  A    between atoms: _437  and  _438
REMARK  193  A    between atoms: _441  and  _443
REMARK  194  A    between atoms: _443  and  _444
REMARK  195  A    between atoms: _443  and  _446
REMARK  196  A    between atoms: _446  and  _447
REMARK  197  A    between atoms: _452  and  _454
REMARK  198  A    between atoms: _454  and  _455
REMARK  199  A    between atoms: _454  and  _457
REMARK  200  A    between atoms: _457  and  _458
REMARK  201  A    between atoms: _461  and  _463
REMARK  202  A    between atoms: _463  and  _464
REMARK  203  A    between atoms: _463  and  _466
REMARK  204  A    between atoms: _466  and  _467
REMARK  205  A    between atoms: _470  and  _472
REMARK  206  A    between atoms: _472  and  _473
REMARK  207  A    between atoms: _472  and  _475
REMARK  208  A    between atoms: _475  and  _476
REMARK  209  A    between atoms: _479  and  _481
REMARK  210  A    between atoms: _481  and  _482
REMARK  211  A    between atoms: _481  and  _484
REMARK  212  A    between atoms: _484  and  _485
REMARK  213  A    between atoms: _485  and  _486
REMARK  214  A    between atoms: _491  and  _493
REMARK  215  A    between atoms: _493  and  _494
REMARK  216  A    between atoms: _493  and  _496
REMARK  217  A    between atoms: _499  and  _501
REMARK  218  A    between atoms: _501  and  _502
REMARK  219  A    between atoms: _501  and  _504
REMARK  220  A    between atoms: _504  and  _505
REMARK  221  A    between atoms: _508  and  _510
REMARK  222  A    between atoms: _510  and  _511
REMARK  223  A    between atoms: _510  and  _513
REMARK  224  A    between atoms: _513  and  _514
REMARK  225  A    between atoms: _517  and  _519
REMARK  226  A    between atoms: _519  and  _520
REMARK  227  A    between atoms: _519  and  _522
REMARK  228  A    between atoms: _522  and  _523
REMARK  229  A    between atoms: _529  and  _531
REMARK  230  A    between atoms: _531  and  _532
REMARK  231  A    between atoms: _534  and  _536
REMARK  232  A    between atoms: _536  and  _537
REMARK  233  A    between atoms: _536  and  _539
REMARK  234  A    between atoms: _539  and  _540
REMARK  235  A    between atoms: _546  and  _548
REMARK  236  A    between atoms: _548  and  _549
REMARK  237  A    between atoms: _552  and  _554
REMARK  238  A    between atoms: _554  and  _555
REMARK  239  A    between atoms: _557  and  _559
REMARK  240  A    between atoms: _559  and  _560
REMARK  241  A    between atoms: _559  and  _562
REMARK  242  A    between atoms: _562  and  _563
REMARK  243  A    between atoms: _566  and  _568
REMARK  244  A    between atoms: _568  and  _569
REMARK  245  A    between atoms: _568  and  _571
REMARK  246  A    between atoms: _571  and  _572
REMARK  247  A    between atoms: _578  and  _580
REMARK  248  A    between atoms: _580  and  _581
REMARK  249  A    between atoms: _580  and  _583
REMARK  250  A    between atoms: _583  and  _584
REMARK  251  A    between atoms: _589  and  _590
REMARK                            x       y       z     vdW  Elec       q    Type
REMARK                         _______ _______ _______ _____ _____    ______ ____
ROOT
ATOM      1  CA  PHE A   7      17.515  17.684  -1.869  0.00  0.00    +0.153 C 
ENDROOT
BRANCH   1   2
ATOM      2  C   PHE A   7      16.376  18.364  -1.183  0.00  0.00    +0.241 C 
ATOM      3  N   GLY A   8      15.905  17.826  -0.075  0.00  0.00    -0.295 N 
ATOM      4  H   GLY A   8      16.360  16.977   0.316  0.00  0.00    +0.150 HD
ATOM      5  O   PHE A   7      15.868  19.339  -1.702  0.00  0.00    -0.273 OA
BRANCH   3   6
ATOM      6  CA  GLY A   8      14.762  18.401   0.605  0.00  0.00    +0.176 C 
BRANCH   6   7
ATOM      7  C   GLY A   8      14.140  17.505   1.663  0.00  0.00    +0.243 C 
ATOM      8  O   GLY A   8      14.845  16.837   2.423  0.00  0.00    -0.273 OA
ATOM      9  N   ARG A   9      12.821  17.497   1.719  0.00  0.00    -0.297 N 
ATOM     10  H   ARG A   9      12.279  17.940   0.950  0.00  0.00    +0.150 HD
BRANCH   9  11
ATOM     11  CA  ARG A   9      12.104  16.883   2.831  0.00  0.00    +0.149 C 
BRANCH  11  12
ATOM     12  C   ARG A   9      10.664  16.521   2.491  0.00  0.00    +0.241 C 
ATOM     13  N   VAL A  10      10.102  15.619   3.263  0.00  0.00    -0.297 N 
ATOM     14  H   VAL A  10      10.698  15.100   3.939  0.00  0.00    +0.150 HD
ATOM     15  O   ARG A   9      10.073  17.030   1.549  0.00  0.00    -0.273 OA
BRANCH  13  16
ATOM     16  CA  VAL A  10       8.692  15.318   3.212  0.00  0.00    +0.149 C 
BRANCH  16  17
ATOM     17  C   VAL A  10       8.073  15.875   4.504  0.00  0.00    +0.241 C 
ATOM     18  O   VAL A  10       8.534  15.543   5.583  0.00  0.00    -0.273 OA
ATOM     19  N   MET A  11       7.054  16.734   4.354  0.00  0.00    -0.297 N 
ATOM     20  H   MET A  11       6.767  16.984   3.386  0.00  0.00    +0.150 HD
BRANCH  19  21
ATOM     21  CA  MET A  11       6.326  17.337   5.454  0.00  0.00    +0.149 C 
BRANCH  21  22
ATOM     22  C   MET A  11       4.854  16.927   5.502  0.00  0.00    +0.241 C 
ATOM     23  N   LEU A  12       4.358  16.776   6.715  0.00  0.00    -0.298 N 
ATOM     24  H   LEU A  12       5.016  16.638   7.509  0.00  0.00    +0.150 HD
ATOM     25  O   MET A  11       4.193  16.754   4.468  0.00  0.00    -0.273 OA
BRANCH  23  26
ATOM     26  CA  LEU A  12       2.920  16.794   6.990  0.00  0.00    +0.137 C 
BRANCH  26  27
ATOM     27  C   LEU A  12       2.422  18.184   6.644  0.00  0.00    +0.227 C 
ATOM     28  O   LEU A  12       2.998  19.154   7.103  0.00  0.00    -0.286 OA
ENDBRANCH  26  27
BRANCH  26  29
ATOM     29  CB  LEU A  12       2.645  16.584   8.469  0.00  0.00    +0.028 C 
BRANCH  29  30
ATOM     30  CG  LEU A  12       1.418  15.752   8.911  0.00  0.00    +0.002 C 
ATOM     31  CD2 LEU A  12       0.934  16.239  10.241  0.00  0.00    +0.000 C 
ATOM     32  CD1 LEU A  12       0.322  15.595   7.931  0.00  0.00    +0.000 C 
ENDBRANCH  29  30
ENDBRANCH  26  29
ENDBRANCH  23  26
ENDBRANCH  21  22
BRANCH  21  33
ATOM     33  CB  MET A  11       6.358  18.866   5.339  0.00  0.00    +0.041 C 
BRANCH  33  34
ATOM     34  CG  MET A  11       7.769  19.455   5.164  0.00  0.00    +0.060 C 
BRANCH  34  35
ATOM     35  SD  MET A  11       7.832  21.207   5.476  0.00  0.00    -0.139 S 
ATOM     36  CE  MET A  11       7.346  21.201   7.215  0.00  0.00    +0.069 C 
ENDBRANCH  34  35
ENDBRANCH  33  34
ENDBRANCH  21  33
ENDBRANCH  19  21
ENDBRANCH  16  17
BRANCH  16  37
ATOM     37  CB  VAL A  10       8.435  13.824   3.116  0.00  0.00    +0.027 C 
ATOM     38  CG2 VAL A  10       6.953  13.511   3.282  0.00  0.00    +0.002 C 
ATOM     39  CG1 VAL A  10       8.951  13.263   1.777  0.00  0.00    +0.002 C 
ENDBRANCH  16  37
ENDBRANCH  13  16
ENDBRANCH  11  12
BRANCH  11  40
ATOM     40  CB  ARG A   9      12.106  17.861   4.020  0.00  0.00    +0.033 C 
BRANCH  40  41
ATOM     41  CG  ARG A   9      11.474  19.200   3.703  0.00  0.00    +0.045 C 
BRANCH  41  42
ATOM     42  CD  ARG A   9      12.162  20.419   4.358  0.00  0.00    +0.174 C 
BRANCH  42  43
ATOM     43  NE  ARG A   9      12.286  20.156   5.741  0.00  0.00    -0.265 N 
ATOM     44  CZ  ARG A   9      13.384  20.162   6.491  0.00  0.00    +0.342 C 
ATOM     45  NH2 ARG A   9      13.211  19.834   7.742  0.00  0.00    -0.292 N 
ATOM     46 HH21 ARG A   9      14.023  19.816   8.392  0.00  0.00    +0.255 HD
ATOM     47 HH22 ARG A   9      12.261  19.591   8.089  0.00  0.00    +0.255 HD
ATOM     48  NH1 ARG A   9      14.607  20.480   6.065  0.00  0.00    -0.292 N 
ATOM     49 HH11 ARG A   9      15.410  20.457   6.725  0.00  0.00    +0.255 HD
ATOM     50 HH12 ARG A   9      14.758  20.751   5.072  0.00  0.00    +0.255 HD
ATOM     51  HE  ARG A   9      11.401  19.928   6.238  0.00  0.00    +0.259 HD
ENDBRANCH  42  43
ENDBRANCH  41  42
ENDBRANCH  40  41
ENDBRANCH  11  40
ENDBRANCH   9  11
ENDBRANCH   6   7
ENDBRANCH   3   6
ENDBRANCH   1   2
BRANCH   1  54
ATOM     52  C   SER A   6      19.330  16.891  -0.399  0.00  0.00    +0.243 C 
ATOM     53  O   SER A   6      19.942  17.948  -0.435  0.00  0.00    -0.273 OA
ATOM     54  N   PHE A   7      18.190  16.641  -1.074  0.00  0.00    -0.297 N 
ATOM     55  H   PHE A   7      17.776  15.688  -1.033  0.00  0.00    +0.150 HD
BRANCH  52  56
ATOM     56  CA  SER A   6      19.937  15.780   0.425  0.00  0.00    +0.178 C 
BRANCH  56  59
ATOM     57  C   GLY A   5      18.063  14.869   1.571  0.00  0.00    +0.243 C 
ATOM     58  O   GLY A   5      17.813  15.988   1.991  0.00  0.00    -0.273 OA
ATOM     59  N   SER A   6      19.025  14.666   0.673  0.00  0.00    -0.295 N 
ATOM     60  H   SER A   6      19.122  13.759   0.173  0.00  0.00    +0.150 HD
BRANCH  57  61
ATOM     61  CA  GLY A   5      17.210  13.708   2.053  0.00  0.00    +0.176 C 
BRANCH  61  64
ATOM     62  C   THR A   4      15.580  13.589   3.877  0.00  0.00    +0.243 C 
ATOM     63  O   THR A   4      15.751  12.382   4.075  0.00  0.00    -0.273 OA
ATOM     64  N   GLY A   5      16.162  14.260   2.901  0.00  0.00    -0.295 N 
ATOM     65  H   GLY A   5      15.855  15.238   2.727  0.00  0.00    +0.150 HD
BRANCH  62  66
ATOM     66  CA  THR A   4      14.677  14.411   4.777  0.00  0.00    +0.176 C 
BRANCH  66  68
ATOM     67  C   GLY A   3      12.523  13.877   5.795  0.00  0.00    +0.243 C 
ATOM     68  N   THR A   4      13.803  13.557   5.579  0.00  0.00    -0.295 N 
ATOM     69  H   THR A   4      14.185  12.682   5.990  0.00  0.00    +0.150 HD
ATOM     70  O   GLY A   3      11.975  14.908   5.361  0.00  0.00    -0.273 OA
BRANCH  67  71
ATOM     71  CA  GLY A   3      11.729  12.886   6.617  0.00  0.00    +0.176 C 
BRANCH  71  74
ATOM     72  C   LEU A   2       9.630  12.733   7.788  0.00  0.00    +0.241 C 
ATOM     73  O   LEU A   2       9.774  11.538   7.985  0.00  0.00    -0.273 OA
ATOM     74  N   GLY A   3      10.463  13.439   7.028  0.00  0.00    -0.295 N 
ATOM     75  H   GLY A   3      10.198  14.399   6.728  0.00  0.00    +0.150 HD
BRANCH  72  76
ATOM     76  CA  LEU A   2       8.400  13.469   8.359  0.00  0.00    +0.149 C 
BRANCH  76  79
ATOM     77  C   THR A   1       8.839  15.731   9.176  0.00  0.00    +0.241 C 
ATOM     78  O   THR A   1       9.088  15.366  10.318  0.00  0.00    -0.274 OA
ATOM     79  N   LEU A   2       8.487  14.903   8.203  0.00  0.00    -0.297 N 
ATOM     80  H   LEU A   2       8.260  15.309   7.273  0.00  0.00    +0.150 HD
BRANCH  77  81
ATOM     81  CA  THR A   1       8.913  17.198   8.780  0.00  0.00    +0.172 C 
BRANCH  81  82
ATOM     82  N   THR A   1       8.080  18.047   9.639  0.00  0.00    -0.236 NA
ATOM     83  H   THR A   1       8.536  18.602  10.391  0.00  0.00    +0.142 HD
ENDBRANCH  81  82
BRANCH  81  84
ATOM     84  CB  THR A   1      10.353  17.682   8.829  0.00  0.00    +0.135 C 
ATOM     85  CG2 THR A   1      11.320  16.776   7.981  0.00  0.00    +0.034 C 
BRANCH  84  86
ATOM     86  OG1 THR A   1      10.419  18.930   8.167  0.00  0.00    -0.383 OA
ATOM     87  HG1 THR A   1       9.825  19.577   8.624  0.00  0.00    +0.210 HD
ENDBRANCH  84  86
ENDBRANCH  81  84
ENDBRANCH  77  81
ENDBRANCH  76  79
BRANCH  76  88
ATOM     88  CB  LEU A   2       7.163  12.976   7.600  0.00  0.00    +0.029 C 
BRANCH  88  89
ATOM     89  CG  LEU A   2       5.829  13.650   7.881  0.00  0.00    +0.002 C 
ATOM     90  CD2 LEU A   2       5.490  13.482   9.334  0.00  0.00    +0.000 C 
ATOM     91  CD1 LEU A   2       4.771  13.027   7.013  0.00  0.00    +0.000 C 
ENDBRANCH  88  89
ENDBRANCH  76  88
ENDBRANCH  72  76
ENDBRANCH  71  74
ENDBRANCH  67  71
ENDBRANCH  66  68
BRANCH  66  92
ATOM     92  CB  THR A   4      15.600  15.294   5.682  0.00  0.00    +0.137 C 
ATOM     93  CG2 THR A   4      14.803  16.090   6.734  0.00  0.00    +0.034 C 
BRANCH  92  94
ATOM     94  OG1 THR A   4      16.415  14.424   6.452  0.00  0.00    -0.382 OA
ATOM     95  HG1 THR A   4      16.962  13.864   5.846  0.00  0.00    +0.210 HD
ENDBRANCH  92  94
ENDBRANCH  66  92
ENDBRANCH  62  66
ENDBRANCH  61  64
ENDBRANCH  57  61
ENDBRANCH  56  59
BRANCH  56  96
ATOM     96  CB  SER A   6      21.286  15.406  -0.215  0.00  0.00    +0.166 C 
BRANCH  96  97
ATOM     97  OG  SER A   6      21.455  14.043  -0.365  0.00  0.00    -0.380 OA
ATOM     98  H   SER A   6      21.412  13.607   0.523  0.00  0.00    +0.211 HD
ENDBRANCH  96  97
ENDBRANCH  56  96
ENDBRANCH  52  56
ENDBRANCH   1  54
BRANCH   1  99
ATOM     99  CB  PHE A   7      16.874  17.153  -3.159  0.00  0.00    +0.055 C 
BRANCH  99 100
ATOM    100  CG  PHE A   7      17.740  16.334  -3.982  0.00  0.00    -0.020 A 
ATOM    101  CD2 PHE A   7      19.068  16.629  -4.099  0.00  0.00    -0.004 A 
ATOM    102  CE2 PHE A   7      19.876  15.854  -4.906  0.00  0.00    -0.000 A 
ATOM    103  CZ  PHE A   7      19.341  14.768  -5.606  0.00  0.00    -0.000 A 
ATOM    104  CE1 PHE A   7      18.003  14.453  -5.495  0.00  0.00    -0.000 A 
ATOM    105  CD1 PHE A   7      17.199  15.251  -4.694  0.00  0.00    -0.004 A 
ENDBRANCH  99 100
ENDBRANCH   1  99
TORSDOF 44
REMARK  Name = ../refined-set-2016/1xh5/1xh5_pocket.pdb
REMARK  251 active torsions:
REMARK  status: ('A' for Active; 'I' for Inactive)
REMARK    1  A    between atoms: _1  and  _3
REMARK    2  A    between atoms: _3  and  _4
REMARK    3  A    between atoms: _3  and  _6
REMARK    4  A    between atoms: _6  and  _7
REMARK    5  A    between atoms: _10  and  _12
REMARK    6  A    between atoms: _12  and  _13
REMARK    7  A    between atoms: _12  and  _15
REMARK    8  A    between atoms: _15  and  _16
REMARK    9  A    between atoms: _19  and  _21
REMARK   10  A    between atoms: _21  and  _22
REMARK   11  A    between atoms: _24  and  _26
REMARK   12  A    between atoms: _26  and  _27
REMARK   13  A    between atoms: _26  and  _29
REMARK   14  A    between atoms: _29  and  _30
REMARK   15  A    between atoms: _33  and  _35
REMARK   16  A    between atoms: _35  and  _36
REMARK   17  A    between atoms: _38  and  _40
REMARK   18  A    between atoms: _40  and  _41
REMARK   19  A    between atoms: _40  and  _43
REMARK   20  A    between atoms: _43  and  _44
REMARK   21  A    between atoms: _46  and  _48
REMARK   22  A    between atoms: _48  and  _49
REMARK   23  A    between atoms: _48  and  _51
REMARK   24  A    between atoms: _51  and  _52
REMARK   25  A    between atoms: _58  and  _60
REMARK   26  A    between atoms: _60  and  _61
REMARK   27  A    between atoms: _63  and  _65
REMARK   28  A    between atoms: _65  and  _66
REMARK   29  A    between atoms: _65  and  _68
REMARK   30  A    between atoms: _68  and  _69
REMARK   31  A    between atoms: _69  and  _70
REMARK   32  A    between atoms: _70  and  _71
REMARK   33  A    between atoms: _80  and  _82
REMARK   34  A    between atoms: _82  and  _83
REMARK   35  A    between atoms: _82  and  _85
REMARK   36  A    between atoms: _88  and  _90
REMARK   37  A    between atoms: _90  and  _91
REMARK   38  A    between atoms: _90  and  _93
REMARK   39  A    between atoms: _93  and  _94
REMARK   40  A    between atoms: _94  and  _95
REMARK   41  A    between atoms: _97  and  _99
REMARK   42  A    between atoms: _99  and  _100
REMARK   43  A    between atoms: _99  and  _102
REMARK   44  A    between atoms: _102  and  _103
REMARK   45  A    between atoms: _106  and  _108
REMARK   46  A    between atoms: _108  and  _109
REMARK   47  A    between atoms: _108  and  _111
REMARK   48  A    between atoms: _111  and  _112
REMARK   49  A    between atoms: _117  and  _118
REMARK   50  A    between atoms: _120  and  _122
REMARK   51  A    between atoms: _122  and  _123
REMARK   52  A    between atoms: _126  and  _128
REMARK   53  A    between atoms: _128  and  _129
REMARK   54  A    between atoms: _128  and  _131
REMARK   55  A    between atoms: _131  and  _132
REMARK   56  A    between atoms: _132  and  _133
REMARK   57  A    between atoms: _135  and  _137
REMARK   58  A    between atoms: _137  and  _138
REMARK   59  A    between atoms: _137  and  _140
REMARK   60  A    between atoms: _140  and  _141
REMARK   61  A    between atoms: _141  and  _142
REMARK   62  A    between atoms: _142  and  _143
REMARK   63  A    between atoms: _143  and  _144
REMARK   64  A    between atoms: _148  and  _150
REMARK   65  A    between atoms: _150  and  _151
REMARK   66  A    between atoms: _150  and  _153
REMARK   67  A    between atoms: _153  and  _154
REMARK   68  A    between atoms: _157  and  _159
REMARK   69  A    between atoms: _159  and  _160
REMARK   70  A    between atoms: _159  and  _162
REMARK   71  A    between atoms: _162  and  _163
REMARK   72  A    between atoms: _166  and  _168
REMARK   73  A    between atoms: _168  and  _169
REMARK   74  A    between atoms: _168  and  _171
REMARK   75  A    between atoms: _171  and  _172
REMARK   76  A    between atoms: _175  and  _177
REMARK   77  A    between atoms: _177  and  _178
REMARK   78  A    between atoms: _177  and  _180
REMARK   79  A    between atoms: _180  and  _181
REMARK   80  A    between atoms: _181  and  _182
REMARK   81  A    between atoms: _182  and  _183
REMARK   82  A    between atoms: _183  and  _184
REMARK   83  A    between atoms: _188  and  _190
REMARK   84  A    between atoms: _190  and  _191
REMARK   85  A    between atoms: _190  and  _193
REMARK   86  A    between atoms: _196  and  _198
REMARK   87  A    between atoms: _198  and  _199
REMARK   88  A    between atoms: _198  and  _201
REMARK   89  A    between atoms: _201  and  _202
REMARK   90  A    between atoms: _205  and  _207
REMARK   91  A    between atoms: _207  and  _208
REMARK   92  A    between atoms: _207  and  _210
REMARK   93  A    between atoms: _210  and  _211
REMARK   94  A    between atoms: _211  and  _212
REMARK   95  A    between atoms: _212  and  _213
REMARK   96  A    between atoms: _213  and  _214
REMARK   97  A    between atoms: _218  and  _220
REMARK   98  A    between atoms: _220  and  _221
REMARK   99  A    between atoms: _220  and  _223
REMARK  100  A    between atoms: _223  and  _224
REMARK  101  A    between atoms: _224  and  _225
REMARK  102  A    between atoms: _230  and  _232
REMARK  103  A    between atoms: _232  and  _233
REMARK  104  A    between atoms: _232  and  _235
REMARK  105  A    between atoms: _235  and  _236
REMARK  106  A    between atoms: _241  and  _243
REMARK  107  A    between atoms: _243  and  _244
REMARK  108  A    between atoms: _243  and  _246
REMARK  109  A    between atoms: _246  and  _247
REMARK  110  A    between atoms: _250  and  _252
REMARK  111  A    between atoms: _252  and  _253
REMARK  112  A    between atoms: _252  and  _255
REMARK  113  A    between atoms: _255  and  _256
REMARK  114  A    between atoms: _256  and  _257
REMARK  115  A    between atoms: _260  and  _262
REMARK  116  A    between atoms: _262  and  _263
REMARK  117  A    between atoms: _262  and  _265
REMARK  118  A    between atoms: _265  and  _266
REMARK  119  A    between atoms: _269  and  _271
REMARK  120  A    between atoms: _271  and  _272
REMARK  121  A    between atoms: _271  and  _274
REMARK  122  A    between atoms: _277  and  _279
REMARK  123  A    between atoms: _279  and  _280
REMARK  124  A    between atoms: _279  and  _282
REMARK  125  A    between atoms: _282  and  _283
REMARK  126  A    between atoms: _283  and  _284
REMARK  127  A    between atoms: _284  and  _285
REMARK  128  A    between atoms: _285  and  _286
REMARK  129  A    between atoms: _290  and  _292
REMARK  130  A    between atoms: _292  and  _293
REMARK  131  A    between atoms: _292  and  _295
REMARK  132  A    between atoms: _295  and  _296
REMARK  133  A    between atoms: _296  and  _297
REMARK  134  A    between atoms: _299  and  _301
REMARK  135  A    between atoms: _301  and  _302
REMARK  136  A    between atoms: _301  and  _304
REMARK  137  A    between atoms: _304  and  _305
REMARK  138  A    between atoms: _305  and  _306
REMARK  139  A    between atoms: _308  and  _310
REMARK  140  A    between atoms: _310  and  _311
REMARK  141  A    between atoms: _310  and  _313
REMARK  142  A    between atoms: _313  and  _314
REMARK  143  A    between atoms: _314  and  _315
REMARK  144  A    between atoms: _318  and  _320
REMARK  145  A    between atoms: _320  and  _321
REMARK  146  A    between atoms: _320  and  _323
REMARK  147  A    between atoms: _323  and  _324
REMARK  148  A    between atoms: _329  and  _330
REMARK  149  A    between atoms: _332  and  _334
REMARK  150  A    between atoms: _334  and  _335
REMARK  151  A    between atoms: _334  and  _337
REMARK  152  A    between atoms: _341  and  _342
REMARK  153  A    between atoms: _347  and  _349
REMARK  154  A    between atoms: _349  and  _350
REMARK  155  A    between atoms: _352  and  _354
REMARK  156  A    between atoms: _354  and  _355
REMARK  157  A    between atoms: _357  and  _359
REMARK  158  A    between atoms: _359  and  _360
REMARK  159  A    between atoms: _359  and  _362
REMARK  160  A    between atoms: _362  and  _363
REMARK  161  A    between atoms: _363  and  _364
REMARK  162  A    between atoms: _367  and  _369
REMARK  163  A    between atoms: _369  and  _370
REMARK  164  A    between atoms: _369  and  _372
REMARK  165  A    between atoms: _372  and  _373
REMARK  166  A    between atoms: _373  and  _374
REMARK  167  A    between atoms: _376  and  _378
REMARK  168  A    between atoms: _378  and  _379
REMARK  169  A    between atoms: _378  and  _381
REMARK  170  A    between atoms: _381  and  _382
REMARK  171  A    between atoms: _388  and  _390
REMARK  172  A    between atoms: _390  and  _391
REMARK  173  A    between atoms: _390  and  _393
REMARK  174  A    between atoms: _393  and  _394
REMARK  175  A    between atoms: _399  and  _400
REMARK  176  A    between atoms: _402  and  _404
REMARK  177  A    between atoms: _404  and  _405
REMARK  178  A    between atoms: _404  and  _407
REMARK  179  A    between atoms: _407  and  _408
REMARK  180  A    between atoms: _411  and  _413
REMARK  181  A    between atoms: _413  and  _414
REMARK  182  A    between atoms: _413  and  _416
REMARK  183  A    between atoms: _416  and  _417
REMARK  184  A    between atoms: _417  and  _418
REMARK  185  A    between atoms: _418  and  _419
REMARK  186  A    between atoms: _419  and  _420
REMARK  187  A    between atoms: _425  and  _426
REMARK  188  A    between atoms: _431  and  _433
REMARK  189  A    between atoms: _433  and  _434
REMARK  190  A    between atoms: _433  and  _436
REMARK  191  A    between atoms: _436  and  _437
REMARK  192  A    between atoms: _437  and  _438
REMARK  193  A    between atoms: _441  and  _443
REMARK  194  A    between atoms: _443  and  _444
REMARK  195  A    between atoms: _443  and  _446
REMARK  196  A    between atoms: _446  and  _447
REMARK  197  A    between atoms: _452  and  _454
REMARK  198  A    between atoms: _454  and  _455
REMARK  199  A    between atoms: _454  and  _457
REMARK  200  A    between atoms: _457  and  _458
REMARK  201  A    between atoms: _461  and  _463
REMARK  202  A    between atoms: _463  and  _464
REMARK  203  A    between atoms: _463  and  _466
REMARK  204  A    between atoms: _466  and  _467
REMARK  205  A    between atoms: _470  and  _472
REMARK  206  A    between atoms: _472  and  _473
REMARK  207  A    between atoms: _472  and  _475
REMARK  208  A    between atoms: _475  and  _476
REMARK  209  A    between atoms: _479  and  _481
REMARK  210  A    between atoms: _481  and  _482
REMARK  211  A    between atoms: _481  and  _484
REMARK  212  A    between atoms: _484  and  _485
REMARK  213  A    between atoms: _485  and  _486
REMARK  214  A    between atoms: _491  and  _493
REMARK  215  A    between atoms: _493  and  _494
REMARK  216  A    between atoms: _493  and  _496
REMARK  217  A    between atoms: _499  and  _501
REMARK  218  A    between atoms: _501  and  _502
REMARK  219  A    between atoms: _501  and  _504
REMARK  220  A    between atoms: _504  and  _505
REMARK  221  A    between atoms: _508  and  _510
REMARK  222  A    between atoms: _510  and  _511
REMARK  223  A    between atoms: _510  and  _513
REMARK  224  A    between atoms: _513  and  _514
REMARK  225  A    between atoms: _517  and  _519
REMARK  226  A    between atoms: _519  and  _520
REMARK  227  A    between atoms: _519  and  _522
REMARK  228  A    between atoms: _522  and  _523
REMARK  229  A    between atoms: _529  and  _531
REMARK  230  A    between atoms: _531  and  _532
REMARK  231  A    between atoms: _534  and  _536
REMARK  232  A    between atoms: _536  and  _537
REMARK  233  A    between atoms: _536  and  _539
REMARK  234  A    between atoms: _539  and  _540
REMARK  235  A    between atoms: _546  and  _548
REMARK  236  A    between atoms: _548  and  _549
REMARK  237  A    between atoms: _552  and  _554
REMARK  238  A    between atoms: _554  and  _555
REMARK  239  A    between atoms: _557  and  _559
REMARK  240  A    between atoms: _559  and  _560
REMARK  241  A    between atoms: _559  and  _562
REMARK  242  A    between atoms: _562  and  _563
REMARK  243  A    between atoms: _566  and  _568
REMARK  244  A    between atoms: _568  and  _569
REMARK  245  A    between atoms: _568  and  _571
REMARK  246  A    between atoms: _571  and  _572
REMARK  247  A    between atoms: _578  and  _580
REMARK  248  A    between atoms: _580  and  _581
REMARK  249  A    between atoms: _580  and  _583
REMARK  250  A    between atoms: _583  and  _584
REMARK  251  A    between atoms: _589  and  _590
REMARK                            x       y       z     vdW  Elec       q    Type
REMARK                         _______ _______ _______ _____ _____    ______ ____
ROOT
ATOM      1  CA  LYS A   4       7.759  16.209  -0.816  0.00  0.00    +0.149 C 
ENDROOT
BRANCH   1   2
ATOM      2  C   LYS A   4       8.167  17.509  -1.504  0.00  0.00    +0.241 C 
ATOM      3  N   ILE A   5       9.156  18.170  -0.920  0.00  0.00    -0.297 N 
ATOM      4  H   ILE A   5       9.549  17.772  -0.043  0.00  0.00    +0.150 HD
ATOM      5  O   LYS A   4       7.578  17.904  -2.506  0.00  0.00    -0.273 OA
BRANCH   3   6
ATOM      6  CA  ILE A   5       9.732  19.409  -1.413  0.00  0.00    +0.149 C 
BRANCH   6   7
ATOM      7  C   ILE A   5      11.181  19.146  -1.811  0.00  0.00    +0.241 C 
ATOM      8  O   ILE A   5      11.979  18.696  -0.987  0.00  0.00    -0.273 OA
ATOM      9  N   LEU A   6      11.522  19.468  -3.051  0.00  0.00    -0.297 N 
ATOM     10  H   LEU A   6      10.800  19.907  -3.657  0.00  0.00    +0.150 HD
BRANCH   9  11
ATOM     11  CA  LEU A   6      12.850  19.245  -3.619  0.00  0.00    +0.149 C 
BRANCH  11  12
ATOM     12  C   LEU A   6      13.399  20.528  -4.181  0.00  0.00    +0.241 C 
ATOM     13  N   ASP A   7      14.610  20.855  -3.762  0.00  0.00    -0.298 N 
ATOM     14  H   ASP A   7      15.064  20.241  -3.056  0.00  0.00    +0.150 HD
ATOM     15  O   LEU A   6      12.732  21.240  -4.933  0.00  0.00    -0.273 OA
BRANCH  13  16
ATOM     16  CA  ASP A   7      15.347  22.022  -4.229  0.00  0.00    +0.148 C 
BRANCH  16  17
ATOM     17  C   ASP A   7      15.939  21.791  -5.614  0.00  0.00    +0.227 C 
ATOM     18  O   ASP A   7      16.863  20.988  -5.755  0.00  0.00    -0.286 OA
ENDBRANCH  16  17
BRANCH  16  19
ATOM     19  CB  ASP A   7      16.467  22.305  -3.213  0.00  0.00    +0.142 C 
BRANCH  19  20
ATOM     20  CG  ASP A   7      17.253  23.556  -3.531  0.00  0.00    +0.367 C 
ATOM     21  OD2 ASP A   7      17.492  24.342  -2.613  0.00  0.00    -0.246 OA
ATOM     22  OD1 ASP A   7      17.697  23.819  -4.663  0.00  0.00    -0.246 OA
ENDBRANCH  19  20
ENDBRANCH  16  19
ENDBRANCH  13  16
ENDBRANCH  11  12
BRANCH  11  23
ATOM     23  CB  LEU A   6      12.783  18.186  -4.715  0.00  0.00    +0.029 C 
BRANCH  23  24
ATOM     24  CG  LEU A   6      12.233  16.820  -4.316  0.00  0.00    +0.002 C 
ATOM     25  CD2 LEU A   6      13.005  16.192  -3.154  0.00  0.00    +0.000 C 
ATOM     26  CD1 LEU A   6      12.235  15.896  -5.509  0.00  0.00    +0.000 C 
ENDBRANCH  23  24
ENDBRANCH  11  23
ENDBRANCH   9  11
ENDBRANCH   6   7
BRANCH   6  27
ATOM     27  CB  ILE A   5       9.753  20.466  -0.282  0.00  0.00    +0.027 C 
ATOM     28  CG2 ILE A   5      10.363  21.773  -0.757  0.00  0.00    +0.002 C 
BRANCH  27  29
ATOM     29  CG1 ILE A   5       8.357  20.688   0.276  0.00  0.00    +0.002 C 
ATOM     30  CD1 ILE A   5       8.329  21.030   1.718  0.00  0.00    +0.000 C 
ENDBRANCH  27  29
ENDBRANCH   6  27
ENDBRANCH   3   6
ENDBRANCH   1   2
BRANCH   1  33
ATOM     31  C   MET A   3       5.854  16.862   0.567  0.00  0.00    +0.241 C 
ATOM     32  O   MET A   3       6.567  17.258   1.466  0.00  0.00    -0.273 OA
ATOM     33  N   LYS A   4       6.325  16.285  -0.529  0.00  0.00    -0.297 N 
ATOM     34  H   LYS A   4       5.654  15.872  -1.208  0.00  0.00    +0.150 HD
BRANCH  31  35
ATOM     35  CA  MET A   3       4.333  16.981   0.679  0.00  0.00    +0.149 C 
BRANCH  35  37
ATOM     36  C   ALA A   2       3.078  15.135   1.611  0.00  0.00    +0.241 C 
ATOM     37  N   MET A   3       3.865  16.196   1.784  0.00  0.00    -0.297 N 
ATOM     38  H   MET A   3       4.148  16.463   2.749  0.00  0.00    +0.150 HD
ATOM     39  O   ALA A   2       2.795  14.697   0.507  0.00  0.00    -0.273 OA
BRANCH  36  40
ATOM     40  CA  ALA A   2       2.554  14.432   2.842  0.00  0.00    +0.149 C 
ATOM     41  CB  ALA A   2       3.077  12.999   2.848  0.00  0.00    +0.031 C 
BRANCH  40  44
ATOM     42  C   TYR A   1       0.294  15.217   3.508  0.00  0.00    +0.239 C 
ATOM     43  O   TYR A   1       0.661  15.929   4.454  0.00  0.00    -0.274 OA
ATOM     44  N   ALA A   2       1.108  14.408   2.822  0.00  0.00    -0.297 N 
ATOM     45  H   ALA A   2       0.658  13.693   2.216  0.00  0.00    +0.150 HD
BRANCH  42  46
ATOM     46  CA  TYR A   1      -1.184  15.155   3.062  0.00  0.00    +0.149 C 
BRANCH  46  47
ATOM     47  N   TYR A   1      -2.104  15.782   4.032  0.00  0.00    -0.238 NA
ATOM     48  H   TYR A   1      -1.811  16.689   4.447  0.00  0.00    +0.142 HD
ENDBRANCH  46  47
BRANCH  46  49
ATOM     49  CB  TYR A   1      -1.317  15.856   1.717  0.00  0.00    +0.053 C 
BRANCH  49  50
ATOM     50  CG  TYR A   1      -2.716  15.780   1.132  0.00  0.00    -0.020 A 
ATOM     51  CD2 TYR A   1      -3.553  16.893   1.133  0.00  0.00    -0.001 A 
ATOM     52  CE2 TYR A   1      -4.852  16.839   0.603  0.00  0.00    +0.036 A 
ATOM     53  CZ  TYR A   1      -5.315  15.675   0.049  0.00  0.00    +0.134 A 
ATOM     54  CE1 TYR A   1      -4.492  14.545   0.003  0.00  0.00    +0.036 A 
ATOM     55  CD1 TYR A   1      -3.176  14.625   0.537  0.00  0.00    -0.001 A 
BRANCH  53  56
ATOM     56  OH  TYR A   1      -6.582  15.630  -0.479  0.00  0.00    -0.506 OA
ATOM     57  HH  TYR A   1      -6.758  14.723  -0.836  0.00  0.00    +0.292 HD
ENDBRANCH  53  56
ENDBRANCH  49  50
ENDBRANCH  46  49
ENDBRANCH  42  46
ENDBRANCH  40  44
ENDBRANCH  36  40
ENDBRANCH  35  37
BRANCH  35  58
ATOM     58  CB  MET A   3       3.938  18.445   0.840  0.00  0.00    +0.041 C 
BRANCH  58  59
ATOM     59  CG  MET A   3       4.550  19.396  -0.175  0.00  0.00    +0.060 C 
BRANCH  59  60
ATOM     60  SD  MET A   3       4.309  21.209   0.300  0.00  0.00    -0.139 S 
ATOM     61  CE  MET A   3       2.993  21.363  -0.480  0.00  0.00    +0.069 C 
ENDBRANCH  59  60
ENDBRANCH  58  59
ENDBRANCH  35  58
ENDBRANCH  31  35
ENDBRANCH   1  33
BRANCH   1  62
ATOM     62  CB  LYS A   4       8.058  15.021  -1.703  0.00  0.00    +0.029 C 
BRANCH  62  63
ATOM     63  CG  LYS A   4       9.559  14.656  -1.905  0.00  0.00    +0.000 C 
BRANCH  63  64
ATOM     64  CD  LYS A   4       9.683  13.184  -2.418  0.00  0.00    -0.024 C 
BRANCH  64  65
ATOM     65  CE  LYS A   4      11.105  12.665  -2.492  0.00  0.00    -0.086 C 
BRANCH  65  66
ATOM     66  NZ  LYS A   4      11.191  11.215  -2.922  0.00  0.00    +0.380 N 
ATOM     67  HZ1 LYS A   4      10.675  10.622  -2.241  0.00  0.00    -0.089 HD
ATOM     68  HZ2 LYS A   4      12.188  10.922  -2.953  0.00  0.00    -0.089 HD
ATOM     69  HZ3 LYS A   4      10.768  11.109  -3.866  0.00  0.00    -0.089 HD
ENDBRANCH  65  66
ENDBRANCH  64  65
ENDBRANCH  63  64
ENDBRANCH  62  63
ENDBRANCH   1  62
TORSDOF 31
REMARK  Name = ../refined-set-2016/1xh5/1xh5_pocket.pdb
REMARK  251 active torsions:
REMARK  status: ('A' for Active; 'I' for Inactive)
REMARK    1  A    between atoms: _1  and  _3
REMARK    2  A    between atoms: _3  and  _4
REMARK    3  A    between atoms: _3  and  _6
REMARK    4  A    between atoms: _6  and  _7
REMARK    5  A    between atoms: _10  and  _12
REMARK    6  A    between atoms: _12  and  _13
REMARK    7  A    between atoms: _12  and  _15
REMARK    8  A    between atoms: _15  and  _16
REMARK    9  A    between atoms: _19  and  _21
REMARK   10  A    between atoms: _21  and  _22
REMARK   11  A    between atoms: _24  and  _26
REMARK   12  A    between atoms: _26  and  _27
REMARK   13  A    between atoms: _26  and  _29
REMARK   14  A    between atoms: _29  and  _30
REMARK   15  A    between atoms: _33  and  _35
REMARK   16  A    between atoms: _35  and  _36
REMARK   17  A    between atoms: _38  and  _40
REMARK   18  A    between atoms: _40  and  _41
REMARK   19  A    between atoms: _40  and  _43
REMARK   20  A    between atoms: _43  and  _44
REMARK   21  A    between atoms: _46  and  _48
REMARK   22  A    between atoms: _48  and  _49
REMARK   23  A    between atoms: _48  and  _51
REMARK   24  A    between atoms: _51  and  _52
REMARK   25  A    between atoms: _58  and  _60
REMARK   26  A    between atoms: _60  and  _61
REMARK   27  A    between atoms: _63  and  _65
REMARK   28  A    between atoms: _65  and  _66
REMARK   29  A    between atoms: _65  and  _68
REMARK   30  A    between atoms: _68  and  _69
REMARK   31  A    between atoms: _69  and  _70
REMARK   32  A    between atoms: _70  and  _71
REMARK   33  A    between atoms: _80  and  _82
REMARK   34  A    between atoms: _82  and  _83
REMARK   35  A    between atoms: _82  and  _85
REMARK   36  A    between atoms: _88  and  _90
REMARK   37  A    between atoms: _90  and  _91
REMARK   38  A    between atoms: _90  and  _93
REMARK   39  A    between atoms: _93  and  _94
REMARK   40  A    between atoms: _94  and  _95
REMARK   41  A    between atoms: _97  and  _99
REMARK   42  A    between atoms: _99  and  _100
REMARK   43  A    between atoms: _99  and  _102
REMARK   44  A    between atoms: _102  and  _103
REMARK   45  A    between atoms: _106  and  _108
REMARK   46  A    between atoms: _108  and  _109
REMARK   47  A    between atoms: _108  and  _111
REMARK   48  A    between atoms: _111  and  _112
REMARK   49  A    between atoms: _117  and  _118
REMARK   50  A    between atoms: _120  and  _122
REMARK   51  A    between atoms: _122  and  _123
REMARK   52  A    between atoms: _126  and  _128
REMARK   53  A    between atoms: _128  and  _129
REMARK   54  A    between atoms: _128  and  _131
REMARK   55  A    between atoms: _131  and  _132
REMARK   56  A    between atoms: _132  and  _133
REMARK   57  A    between atoms: _135  and  _137
REMARK   58  A    between atoms: _137  and  _138
REMARK   59  A    between atoms: _137  and  _140
REMARK   60  A    between atoms: _140  and  _141
REMARK   61  A    between atoms: _141  and  _142
REMARK   62  A    between atoms: _142  and  _143
REMARK   63  A    between atoms: _143  and  _144
REMARK   64  A    between atoms: _148  and  _150
REMARK   65  A    between atoms: _150  and  _151
REMARK   66  A    between atoms: _150  and  _153
REMARK   67  A    between atoms: _153  and  _154
REMARK   68  A    between atoms: _157  and  _159
REMARK   69  A    between atoms: _159  and  _160
REMARK   70  A    between atoms: _159  and  _162
REMARK   71  A    between atoms: _162  and  _163
REMARK   72  A    between atoms: _166  and  _168
REMARK   73  A    between atoms: _168  and  _169
REMARK   74  A    between atoms: _168  and  _171
REMARK   75  A    between atoms: _171  and  _172
REMARK   76  A    between atoms: _175  and  _177
REMARK   77  A    between atoms: _177  and  _178
REMARK   78  A    between atoms: _177  and  _180
REMARK   79  A    between atoms: _180  and  _181
REMARK   80  A    between atoms: _181  and  _182
REMARK   81  A    between atoms: _182  and  _183
REMARK   82  A    between atoms: _183  and  _184
REMARK   83  A    between atoms: _188  and  _190
REMARK   84  A    between atoms: _190  and  _191
REMARK   85  A    between atoms: _190  and  _193
REMARK   86  A    between atoms: _196  and  _198
REMARK   87  A    between atoms: _198  and  _199
REMARK   88  A    between atoms: _198  and  _201
REMARK   89  A    between atoms: _201  and  _202
REMARK   90  A    between atoms: _205  and  _207
REMARK   91  A    between atoms: _207  and  _208
REMARK   92  A    between atoms: _207  and  _210
REMARK   93  A    between atoms: _210  and  _211
REMARK   94  A    between atoms: _211  and  _212
REMARK   95  A    between atoms: _212  and  _213
REMARK   96  A    between atoms: _213  and  _214
REMARK   97  A    between atoms: _218  and  _220
REMARK   98  A    between atoms: _220  and  _221
REMARK   99  A    between atoms: _220  and  _223
REMARK  100  A    between atoms: _223  and  _224
REMARK  101  A    between atoms: _224  and  _225
REMARK  102  A    between atoms: _230  and  _232
REMARK  103  A    between atoms: _232  and  _233
REMARK  104  A    between atoms: _232  and  _235
REMARK  105  A    between atoms: _235  and  _236
REMARK  106  A    between atoms: _241  and  _243
REMARK  107  A    between atoms: _243  and  _244
REMARK  108  A    between atoms: _243  and  _246
REMARK  109  A    between atoms: _246  and  _247
REMARK  110  A    between atoms: _250  and  _252
REMARK  111  A    between atoms: _252  and  _253
REMARK  112  A    between atoms: _252  and  _255
REMARK  113  A    between atoms: _255  and  _256
REMARK  114  A    between atoms: _256  and  _257
REMARK  115  A    between atoms: _260  and  _262
REMARK  116  A    between atoms: _262  and  _263
REMARK  117  A    between atoms: _262  and  _265
REMARK  118  A    between atoms: _265  and  _266
REMARK  119  A    between atoms: _269  and  _271
REMARK  120  A    between atoms: _271  and  _272
REMARK  121  A    between atoms: _271  and  _274
REMARK  122  A    between atoms: _277  and  _279
REMARK  123  A    between atoms: _279  and  _280
REMARK  124  A    between atoms: _279  and  _282
REMARK  125  A    between atoms: _282  and  _283
REMARK  126  A    between atoms: _283  and  _284
REMARK  127  A    between atoms: _284  and  _285
REMARK  128  A    between atoms: _285  and  _286
REMARK  129  A    between atoms: _290  and  _292
REMARK  130  A    between atoms: _292  and  _293
REMARK  131  A    between atoms: _292  and  _295
REMARK  132  A    between atoms: _295  and  _296
REMARK  133  A    between atoms: _296  and  _297
REMARK  134  A    between atoms: _299  and  _301
REMARK  135  A    between atoms: _301  and  _302
REMARK  136  A    between atoms: _301  and  _304
REMARK  137  A    between atoms: _304  and  _305
REMARK  138  A    between atoms: _305  and  _306
REMARK  139  A    between atoms: _308  and  _310
REMARK  140  A    between atoms: _310  and  _311
REMARK  141  A    between atoms: _310  and  _313
REMARK  142  A    between atoms: _313  and  _314
REMARK  143  A    between atoms: _314  and  _315
REMARK  144  A    between atoms: _318  and  _320
REMARK  145  A    between atoms: _320  and  _321
REMARK  146  A    between atoms: _320  and  _323
REMARK  147  A    between atoms: _323  and  _324
REMARK  148  A    between atoms: _329  and  _330
REMARK  149  A    between atoms: _332  and  _334
REMARK  150  A    between atoms: _334  and  _335
REMARK  151  A    between atoms: _334  and  _337
REMARK  152  A    between atoms: _341  and  _342
REMARK  153  A    between atoms: _347  and  _349
REMARK  154  A    between atoms: _349  and  _350
REMARK  155  A    between atoms: _352  and  _354
REMARK  156  A    between atoms: _354  and  _355
REMARK  157  A    between atoms: _357  and  _359
REMARK  158  A    between atoms: _359  and  _360
REMARK  159  A    between atoms: _359  and  _362
REMARK  160  A    between atoms: _362  and  _363
REMARK  161  A    between atoms: _363  and  _364
REMARK  162  A    between atoms: _367  and  _369
REMARK  163  A    between atoms: _369  and  _370
REMARK  164  A    between atoms: _369  and  _372
REMARK  165  A    between atoms: _372  and  _373
REMARK  166  A    between atoms: _373  and  _374
REMARK  167  A    between atoms: _376  and  _378
REMARK  168  A    between atoms: _378  and  _379
REMARK  169  A    between atoms: _378  and  _381
REMARK  170  A    between atoms: _381  and  _382
REMARK  171  A    between atoms: _388  and  _390
REMARK  172  A    between atoms: _390  and  _391
REMARK  173  A    between atoms: _390  and  _393
REMARK  174  A    between atoms: _393  and  _394
REMARK  175  A    between atoms: _399  and  _400
REMARK  176  A    between atoms: _402  and  _404
REMARK  177  A    between atoms: _404  and  _405
REMARK  178  A    between atoms: _404  and  _407
REMARK  179  A    between atoms: _407  and  _408
REMARK  180  A    between atoms: _411  and  _413
REMARK  181  A    between atoms: _413  and  _414
REMARK  182  A    between atoms: _413  and  _416
REMARK  183  A    between atoms: _416  and  _417
REMARK  184  A    between atoms: _417  and  _418
REMARK  185  A    between atoms: _418  and  _419
REMARK  186  A    between atoms: _419  and  _420
REMARK  187  A    between atoms: _425  and  _426
REMARK  188  A    between atoms: _431  and  _433
REMARK  189  A    between atoms: _433  and  _434
REMARK  190  A    between atoms: _433  and  _436
REMARK  191  A    between atoms: _436  and  _437
REMARK  192  A    between atoms: _437  and  _438
REMARK  193  A    between atoms: _441  and  _443
REMARK  194  A    between atoms: _443  and  _444
REMARK  195  A    between atoms: _443  and  _446
REMARK  196  A    between atoms: _446  and  _447
REMARK  197  A    between atoms: _452  and  _454
REMARK  198  A    between atoms: _454  and  _455
REMARK  199  A    between atoms: _454  and  _457
REMARK  200  A    between atoms: _457  and  _458
REMARK  201  A    between atoms: _461  and  _463
REMARK  202  A    between atoms: _463  and  _464
REMARK  203  A    between atoms: _463  and  _466
REMARK  204  A    between atoms: _466  and  _467
REMARK  205  A    between atoms: _470  and  _472
REMARK  206  A    between atoms: _472  and  _473
REMARK  207  A    between atoms: _472  and  _475
REMARK  208  A    between atoms: _475  and  _476
REMARK  209  A    between atoms: _479  and  _481
REMARK  210  A    between atoms: _481  and  _482
REMARK  211  A    between atoms: _481  and  _484
REMARK  212  A    between atoms: _484  and  _485
REMARK  213  A    between atoms: _485  and  _486
REMARK  214  A    between atoms: _491  and  _493
REMARK  215  A    between atoms: _493  and  _494
REMARK  216  A    between atoms: _493  and  _496
REMARK  217  A    between atoms: _499  and  _501
REMARK  218  A    between atoms: _501  and  _502
REMARK  219  A    between atoms: _501  and  _504
REMARK  220  A    between atoms: _504  and  _505
REMARK  221  A    between atoms: _508  and  _510
REMARK  222  A    between atoms: _510  and  _511
REMARK  223  A    between atoms: _510  and  _513
REMARK  224  A    between atoms: _513  and  _514
REMARK  225  A    between atoms: _517  and  _519
REMARK  226  A    between atoms: _519  and  _520
REMARK  227  A    between atoms: _519  and  _522
REMARK  228  A    between atoms: _522  and  _523
REMARK  229  A    between atoms: _529  and  _531
REMARK  230  A    between atoms: _531  and  _532
REMARK  231  A    between atoms: _534  and  _536
REMARK  232  A    between atoms: _536  and  _537
REMARK  233  A    between atoms: _536  and  _539
REMARK  234  A    between atoms: _539  and  _540
REMARK  235  A    between atoms: _546  and  _548
REMARK  236  A    between atoms: _548  and  _549
REMARK  237  A    between atoms: _552  and  _554
REMARK  238  A    between atoms: _554  and  _555
REMARK  239  A    between atoms: _557  and  _559
REMARK  240  A    between atoms: _559  and  _560
REMARK  241  A    between atoms: _559  and  _562
REMARK  242  A    between atoms: _562  and  _563
REMARK  243  A    between atoms: _566  and  _568
REMARK  244  A    between atoms: _568  and  _569
REMARK  245  A    between atoms: _568  and  _571
REMARK  246  A    between atoms: _571  and  _572
REMARK  247  A    between atoms: _578  and  _580
REMARK  248  A    between atoms: _580  and  _581
REMARK  249  A    between atoms: _580  and  _583
REMARK  250  A    between atoms: _583  and  _584
REMARK  251  A    between atoms: _589  and  _590
REMARK                            x       y       z     vdW  Elec       q    Type
REMARK                         _______ _______ _______ _____ _____    ______ ____
ROOT
ATOM      1  CA  LYS A   1      20.511  20.713  -5.507  0.00  0.00    +0.145 C 
ENDROOT
BRANCH   1   2
ATOM      2  C   LYS A   1      20.329  19.445  -6.352  0.00  0.00    +0.238 C 
ATOM      3  O   LYS A   1      21.269  18.632  -6.497  0.00  0.00    -0.274 OA
ATOM      4  N   VAL A   2      19.146  19.280  -6.937  0.00  0.00    -0.298 N 
ATOM      5  H   VAL A   2      18.381  19.958  -6.749  0.00  0.00    +0.150 HD
BRANCH   4   6
ATOM      6  CA  VAL A   2      18.910  18.162  -7.837  0.00  0.00    +0.137 C 
BRANCH   6   7
ATOM      7  CB  VAL A   2      17.485  18.118  -8.389  0.00  0.00    +0.026 C 
ATOM      8  CG2 VAL A   2      16.489  17.865  -7.260  0.00  0.00    +0.002 C 
ATOM      9  CG1 VAL A   2      17.376  17.028  -9.436  0.00  0.00    +0.002 C 
ENDBRANCH   6   7
BRANCH   6  10
ATOM     10  C   VAL A   2      19.878  18.239  -8.996  0.00  0.00    +0.227 C 
ATOM     11  O   VAL A   2      20.478  17.241  -9.384  0.00  0.00    -0.286 OA
ENDBRANCH   6  10
ENDBRANCH   4   6
ENDBRANCH   1   2
BRANCH   1  12
ATOM     12  N   LYS A   1      19.832  21.868  -6.114  0.00  0.00    -0.238 NA
ATOM     13  H   LYS A   1      18.978  22.252  -5.662  0.00  0.00    +0.142 HD
ENDBRANCH   1  12
BRANCH   1  14
ATOM     14  CB  LYS A   1      20.054  20.496  -4.048  0.00  0.00    +0.026 C 
BRANCH  14  15
ATOM     15  CG  LYS A   1      20.490  21.687  -3.147  0.00  0.00    -0.000 C 
BRANCH  15  16
ATOM     16  CD  LYS A   1      20.095  21.535  -1.684  0.00  0.00    -0.024 C 
BRANCH  16  17
ATOM     17  CE  LYS A   1      20.486  22.785  -0.847  0.00  0.00    -0.086 C 
BRANCH  17  18
ATOM     18  NZ  LYS A   1      20.231  22.456   0.579  0.00  0.00    +0.380 N 
ATOM     19  HZ1 LYS A   1      20.482  23.273   1.172  0.00  0.00    -0.089 HD
ATOM     20  HZ2 LYS A   1      20.809  21.636   0.853  0.00  0.00    -0.089 HD
ATOM     21  HZ3 LYS A   1      19.224  22.230   0.707  0.00  0.00    -0.089 HD
ENDBRANCH  17  18
ENDBRANCH  16  17
ENDBRANCH  15  16
ENDBRANCH  14  15
ENDBRANCH   1  14
TORSDOF 10
REMARK  Name = ../refined-set-2016/1xh5/1xh5_pocket.pdb
REMARK  251 active torsions:
REMARK  status: ('A' for Active; 'I' for Inactive)
REMARK    1  A    between atoms: _1  and  _3
REMARK    2  A    between atoms: _3  and  _4
REMARK    3  A    between atoms: _3  and  _6
REMARK    4  A    between atoms: _6  and  _7
REMARK    5  A    between atoms: _10  and  _12
REMARK    6  A    between atoms: _12  and  _13
REMARK    7  A    between atoms: _12  and  _15
REMARK    8  A    between atoms: _15  and  _16
REMARK    9  A    between atoms: _19  and  _21
REMARK   10  A    between atoms: _21  and  _22
REMARK   11  A    between atoms: _24  and  _26
REMARK   12  A    between atoms: _26  and  _27
REMARK   13  A    between atoms: _26  and  _29
REMARK   14  A    between atoms: _29  and  _30
REMARK   15  A    between atoms: _33  and  _35
REMARK   16  A    between atoms: _35  and  _36
REMARK   17  A    between atoms: _38  and  _40
REMARK   18  A    between atoms: _40  and  _41
REMARK   19  A    between atoms: _40  and  _43
REMARK   20  A    between atoms: _43  and  _44
REMARK   21  A    between atoms: _46  and  _48
REMARK   22  A    between atoms: _48  and  _49
REMARK   23  A    between atoms: _48  and  _51
REMARK   24  A    between atoms: _51  and  _52
REMARK   25  A    between atoms: _58  and  _60
REMARK   26  A    between atoms: _60  and  _61
REMARK   27  A    between atoms: _63  and  _65
REMARK   28  A    between atoms: _65  and  _66
REMARK   29  A    between atoms: _65  and  _68
REMARK   30  A    between atoms: _68  and  _69
REMARK   31  A    between atoms: _69  and  _70
REMARK   32  A    between atoms: _70  and  _71
REMARK   33  A    between atoms: _80  and  _82
REMARK   34  A    between atoms: _82  and  _83
REMARK   35  A    between atoms: _82  and  _85
REMARK   36  A    between atoms: _88  and  _90
REMARK   37  A    between atoms: _90  and  _91
REMARK   38  A    between atoms: _90  and  _93
REMARK   39  A    between atoms: _93  and  _94
REMARK   40  A    between atoms: _94  and  _95
REMARK   41  A    between atoms: _97  and  _99
REMARK   42  A    between atoms: _99  and  _100
REMARK   43  A    between atoms: _99  and  _102
REMARK   44  A    between atoms: _102  and  _103
REMARK   45  A    between atoms: _106  and  _108
REMARK   46  A    between atoms: _108  and  _109
REMARK   47  A    between atoms: _108  and  _111
REMARK   48  A    between atoms: _111  and  _112
REMARK   49  A    between atoms: _117  and  _118
REMARK   50  A    between atoms: _120  and  _122
REMARK   51  A    between atoms: _122  and  _123
REMARK   52  A    between atoms: _126  and  _128
REMARK   53  A    between atoms: _128  and  _129
REMARK   54  A    between atoms: _128  and  _131
REMARK   55  A    between atoms: _131  and  _132
REMARK   56  A    between atoms: _132  and  _133
REMARK   57  A    between atoms: _135  and  _137
REMARK   58  A    between atoms: _137  and  _138
REMARK   59  A    between atoms: _137  and  _140
REMARK   60  A    between atoms: _140  and  _141
REMARK   61  A    between atoms: _141  and  _142
REMARK   62  A    between atoms: _142  and  _143
REMARK   63  A    between atoms: _143  and  _144
REMARK   64  A    between atoms: _148  and  _150
REMARK   65  A    between atoms: _150  and  _151
REMARK   66  A    between atoms: _150  and  _153
REMARK   67  A    between atoms: _153  and  _154
REMARK   68  A    between atoms: _157  and  _159
REMARK   69  A    between atoms: _159  and  _160
REMARK   70  A    between atoms: _159  and  _162
REMARK   71  A    between atoms: _162  and  _163
REMARK   72  A    between atoms: _166  and  _168
REMARK   73  A    between atoms: _168  and  _169
REMARK   74  A    between atoms: _168  and  _171
REMARK   75  A    between atoms: _171  and  _172
REMARK   76  A    between atoms: _175  and  _177
REMARK   77  A    between atoms: _177  and  _178
REMARK   78  A    between atoms: _177  and  _180
REMARK   79  A    between atoms: _180  and  _181
REMARK   80  A    between atoms: _181  and  _182
REMARK   81  A    between atoms: _182  and  _183
REMARK   82  A    between atoms: _183  and  _184
REMARK   83  A    between atoms: _188  and  _190
REMARK   84  A    between atoms: _190  and  _191
REMARK   85  A    between atoms: _190  and  _193
REMARK   86  A    between atoms: _196  and  _198
REMARK   87  A    between atoms: _198  and  _199
REMARK   88  A    between atoms: _198  and  _201
REMARK   89  A    between atoms: _201  and  _202
REMARK   90  A    between atoms: _205  and  _207
REMARK   91  A    between atoms: _207  and  _208
REMARK   92  A    between atoms: _207  and  _210
REMARK   93  A    between atoms: _210  and  _211
REMARK   94  A    between atoms: _211  and  _212
REMARK   95  A    between atoms: _212  and  _213
REMARK   96  A    between atoms: _213  and  _214
REMARK   97  A    between atoms: _218  and  _220
REMARK   98  A    between atoms: _220  and  _221
REMARK   99  A    between atoms: _220  and  _223
REMARK  100  A    between atoms: _223  and  _224
REMARK  101  A    between atoms: _224  and  _225
REMARK  102  A    between atoms: _230  and  _232
REMARK  103  A    between atoms: _232  and  _233
REMARK  104  A    between atoms: _232  and  _235
REMARK  105  A    between atoms: _235  and  _236
REMARK  106  A    between atoms: _241  and  _243
REMARK  107  A    between atoms: _243  and  _244
REMARK  108  A    between atoms: _243  and  _246
REMARK  109  A    between atoms: _246  and  _247
REMARK  110  A    between atoms: _250  and  _252
REMARK  111  A    between atoms: _252  and  _253
REMARK  112  A    between atoms: _252  and  _255
REMARK  113  A    between atoms: _255  and  _256
REMARK  114  A    between atoms: _256  and  _257
REMARK  115  A    between atoms: _260  and  _262
REMARK  116  A    between atoms: _262  and  _263
REMARK  117  A    between atoms: _262  and  _265
REMARK  118  A    between atoms: _265  and  _266
REMARK  119  A    between atoms: _269  and  _271
REMARK  120  A    between atoms: _271  and  _272
REMARK  121  A    between atoms: _271  and  _274
REMARK  122  A    between atoms: _277  and  _279
REMARK  123  A    between atoms: _279  and  _280
REMARK  124  A    between atoms: _279  and  _282
REMARK  125  A    between atoms: _282  and  _283
REMARK  126  A    between atoms: _283  and  _284
REMARK  127  A    between atoms: _284  and  _285
REMARK  128  A    between atoms: _285  and  _286
REMARK  129  A    between atoms: _290  and  _292
REMARK  130  A    between atoms: _292  and  _293
REMARK  131  A    between atoms: _292  and  _295
REMARK  132  A    between atoms: _295  and  _296
REMARK  133  A    between atoms: _296  and  _297
REMARK  134  A    between atoms: _299  and  _301
REMARK  135  A    between atoms: _301  and  _302
REMARK  136  A    between atoms: _301  and  _304
REMARK  137  A    between atoms: _304  and  _305
REMARK  138  A    between atoms: _305  and  _306
REMARK  139  A    between atoms: _308  and  _310
REMARK  140  A    between atoms: _310  and  _311
REMARK  141  A    between atoms: _310  and  _313
REMARK  142  A    between atoms: _313  and  _314
REMARK  143  A    between atoms: _314  and  _315
REMARK  144  A    between atoms: _318  and  _320
REMARK  145  A    between atoms: _320  and  _321
REMARK  146  A    between atoms: _320  and  _323
REMARK  147  A    between atoms: _323  and  _324
REMARK  148  A    between atoms: _329  and  _330
REMARK  149  A    between atoms: _332  and  _334
REMARK  150  A    between atoms: _334  and  _335
REMARK  151  A    between atoms: _334  and  _337
REMARK  152  A    between atoms: _341  and  _342
REMARK  153  A    between atoms: _347  and  _349
REMARK  154  A    between atoms: _349  and  _350
REMARK  155  A    between atoms: _352  and  _354
REMARK  156  A    between atoms: _354  and  _355
REMARK  157  A    between atoms: _357  and  _359
REMARK  158  A    between atoms: _359  and  _360
REMARK  159  A    between atoms: _359  and  _362
REMARK  160  A    between atoms: _362  and  _363
REMARK  161  A    between atoms: _363  and  _364
REMARK  162  A    between atoms: _367  and  _369
REMARK  163  A    between atoms: _369  and  _370
REMARK  164  A    between atoms: _369  and  _372
REMARK  165  A    between atoms: _372  and  _373
REMARK  166  A    between atoms: _373  and  _374
REMARK  167  A    between atoms: _376  and  _378
REMARK  168  A    between atoms: _378  and  _379
REMARK  169  A    between atoms: _378  and  _381
REMARK  170  A    between atoms: _381  and  _382
REMARK  171  A    between atoms: _388  and  _390
REMARK  172  A    between atoms: _390  and  _391
REMARK  173  A    between atoms: _390  and  _393
REMARK  174  A    between atoms: _393  and  _394
REMARK  175  A    between atoms: _399  and  _400
REMARK  176  A    between atoms: _402  and  _404
REMARK  177  A    between atoms: _404  and  _405
REMARK  178  A    between atoms: _404  and  _407
REMARK  179  A    between atoms: _407  and  _408
REMARK  180  A    between atoms: _411  and  _413
REMARK  181  A    between atoms: _413  and  _414
REMARK  182  A    between atoms: _413  and  _416
REMARK  183  A    between atoms: _416  and  _417
REMARK  184  A    between atoms: _417  and  _418
REMARK  185  A    between atoms: _418  and  _419
REMARK  186  A    between atoms: _419  and  _420
REMARK  187  A    between atoms: _425  and  _426
REMARK  188  A    between atoms: _431  and  _433
REMARK  189  A    between atoms: _433  and  _434
REMARK  190  A    between atoms: _433  and  _436
REMARK  191  A    between atoms: _436  and  _437
REMARK  192  A    between atoms: _437  and  _438
REMARK  193  A    between atoms: _441  and  _443
REMARK  194  A    between atoms: _443  and  _444
REMARK  195  A    between atoms: _443  and  _446
REMARK  196  A    between atoms: _446  and  _447
REMARK  197  A    between atoms: _452  and  _454
REMARK  198  A    between atoms: _454  and  _455
REMARK  199  A    between atoms: _454  and  _457
REMARK  200  A    between atoms: _457  and  _458
REMARK  201  A    between atoms: _461  and  _463
REMARK  202  A    between atoms: _463  and  _464
REMARK  203  A    between atoms: _463  and  _466
REMARK  204  A    between atoms: _466  and  _467
REMARK  205  A    between atoms: _470  and  _472
REMARK  206  A    between atoms: _472  and  _473
REMARK  207  A    between atoms: _472  and  _475
REMARK  208  A    between atoms: _475  and  _476
REMARK  209  A    between atoms: _479  and  _481
REMARK  210  A    between atoms: _481  and  _482
REMARK  211  A    between atoms: _481  and  _484
REMARK  212  A    between atoms: _484  and  _485
REMARK  213  A    between atoms: _485  and  _486
REMARK  214  A    between atoms: _491  and  _493
REMARK  215  A    between atoms: _493  and  _494
REMARK  216  A    between atoms: _493  and  _496
REMARK  217  A    between atoms: _499  and  _501
REMARK  218  A    between atoms: _501  and  _502
REMARK  219  A    between atoms: _501  and  _504
REMARK  220  A    between atoms: _504  and  _505
REMARK  221  A    between atoms: _508  and  _510
REMARK  222  A    between atoms: _510  and  _511
REMARK  223  A    between atoms: _510  and  _513
REMARK  224  A    between atoms: _513  and  _514
REMARK  225  A    between atoms: _517  and  _519
REMARK  226  A    between atoms: _519  and  _520
REMARK  227  A    between atoms: _519  and  _522
REMARK  228  A    between atoms: _522  and  _523
REMARK  229  A    between atoms: _529  and  _531
REMARK  230  A    between atoms: _531  and  _532
REMARK  231  A    between atoms: _534  and  _536
REMARK  232  A    between atoms: _536  and  _537
REMARK  233  A    between atoms: _536  and  _539
REMARK  234  A    between atoms: _539  and  _540
REMARK  235  A    between atoms: _546  and  _548
REMARK  236  A    between atoms: _548  and  _549
REMARK  237  A    between atoms: _552  and  _554
REMARK  238  A    between atoms: _554  and  _555
REMARK  239  A    between atoms: _557  and  _559
REMARK  240  A    between atoms: _559  and  _560
REMARK  241  A    between atoms: _559  and  _562
REMARK  242  A    between atoms: _562  and  _563
REMARK  243  A    between atoms: _566  and  _568
REMARK  244  A    between atoms: _568  and  _569
REMARK  245  A    between atoms: _568  and  _571
REMARK  246  A    between atoms: _571  and  _572
REMARK  247  A    between atoms: _578  and  _580
REMARK  248  A    between atoms: _580  and  _581
REMARK  249  A    between atoms: _580  and  _583
REMARK  250  A    between atoms: _583  and  _584
REMARK  251  A    between atoms: _589  and  _590
REMARK                            x       y       z     vdW  Elec       q    Type
REMARK                         _______ _______ _______ _____ _____    ______ ____
ROOT
ATOM      1  CA  LYS A   2      22.835  15.131 -11.542  0.00  0.00    +0.149 C 
ENDROOT
BRANCH   1   4
ATOM      2  C   LEU A   1      23.450  15.141  -9.148  0.00  0.00    +0.238 C 
ATOM      3  O   LEU A   1      23.448  13.914  -9.066  0.00  0.00    -0.274 OA
ATOM      4  N   LYS A   2      23.104  15.781 -10.252  0.00  0.00    -0.297 N 
ATOM      5  H   LYS A   2      23.016  16.816 -10.204  0.00  0.00    +0.150 HD
BRANCH   2   6
ATOM      6  CA  LEU A   1      23.854  15.995  -7.943  0.00  0.00    +0.145 C 
BRANCH   6   7
ATOM      7  N   LEU A   1      23.612  17.414  -8.134  0.00  0.00    -0.238 NA
ATOM      8  H   LEU A   1      22.650  17.781  -7.989  0.00  0.00    +0.142 HD
ENDBRANCH   6   7
BRANCH   6   9
ATOM      9  CB  LEU A   1      23.139  15.524  -6.676  0.00  0.00    +0.026 C 
BRANCH   9  10
ATOM     10  CG  LEU A   1      23.880  15.562  -5.328  0.00  0.00    +0.002 C 
ATOM     11  CD2 LEU A   1      23.330  14.471  -4.360  0.00  0.00    +0.000 C 
ATOM     12  CD1 LEU A   1      25.383  15.387  -5.456  0.00  0.00    +0.000 C 
ENDBRANCH   9  10
ENDBRANCH   6   9
ENDBRANCH   2   6
ENDBRANCH   1   4
BRANCH   1  13
ATOM     13  C   LYS A   2      21.694  14.116 -11.470  0.00  0.00    +0.241 C 
ATOM     14  N   GLN A   3      20.600  14.527 -10.837  0.00  0.00    -0.298 N 
ATOM     15  H   GLN A   3      20.566  15.498 -10.465  0.00  0.00    +0.150 HD
ATOM     16  O   LYS A   2      21.773  13.016 -12.013  0.00  0.00    -0.273 OA
BRANCH  14  17
ATOM     17  CA  GLN A   3      19.459  13.664 -10.651  0.00  0.00    +0.137 C 
BRANCH  17  18
ATOM     18  C   GLN A   3      18.225  14.267 -11.295  0.00  0.00    +0.227 C 
ATOM     19  O   GLN A   3      17.095  14.004 -10.853  0.00  0.00    -0.286 OA
ENDBRANCH  17  18
BRANCH  17  20
ATOM     20  CB  GLN A   3      19.235  13.455  -9.147  0.00  0.00    +0.037 C 
BRANCH  20  21
ATOM     21  CG  GLN A   3      20.322  12.650  -8.436  0.00  0.00    +0.087 C 
BRANCH  21  22
ATOM     22  CD  GLN A   3      20.445  11.222  -8.934  0.00  0.00    +0.219 C 
ATOM     23  OE1 GLN A   3      19.442  10.511  -9.037  0.00  0.00    -0.275 OA
ATOM     24  NE2 GLN A   3      21.670  10.779  -9.195  0.00  0.00    -0.329 N 
ATOM     25 HE21 GLN A   3      22.486  11.416  -9.094  0.00  0.00    +0.145 HD
ATOM     26 HE22 GLN A   3      21.813   9.795  -9.500  0.00  0.00    +0.145 HD
ENDBRANCH  21  22
ENDBRANCH  20  21
ENDBRANCH  17  20
ENDBRANCH  14  17
ENDBRANCH   1  13
BRANCH   1  27
ATOM     27  CB  LYS A   2      24.106  14.512 -12.142  0.00  0.00    +0.029 C 
BRANCH  27  28
ATOM     28  CG  LYS A   2      25.338  15.458 -12.082  0.00  0.00    +0.000 C 
BRANCH  28  29
ATOM     29  CD  LYS A   2      26.622  14.756 -12.565  0.00  0.00    -0.024 C 
BRANCH  29  30
ATOM     30  CE  LYS A   2      27.751  15.780 -12.807  0.00  0.00    -0.086 C 
BRANCH  30  31
ATOM     31  NZ  LYS A   2      27.471  16.618 -14.031  0.00  0.00    +0.380 N 
ATOM     32  HZ1 LYS A   2      26.577  17.133 -13.900  0.00  0.00    -0.089 HD
ATOM     33  HZ2 LYS A   2      28.246  17.297 -14.169  0.00  0.00    -0.089 HD
ATOM     34  HZ3 LYS A   2      27.398  15.999 -14.864  0.00  0.00    -0.089 HD
ENDBRANCH  30  31
ENDBRANCH  29  30
ENDBRANCH  28  29
ENDBRANCH  27  28
ENDBRANCH   1  27
TORSDOF 16
REMARK  Name = ../refined-set-2016/1xh5/1xh5_pocket.pdb
REMARK  251 active torsions:
REMARK  status: ('A' for Active; 'I' for Inactive)
REMARK    1  A    between atoms: _1  and  _3
REMARK    2  A    between atoms: _3  and  _4
REMARK    3  A    between atoms: _3  and  _6
REMARK    4  A    between atoms: _6  and  _7
REMARK    5  A    between atoms: _10  and  _12
REMARK    6  A    between atoms: _12  and  _13
REMARK    7  A    between atoms: _12  and  _15
REMARK    8  A    between atoms: _15  and  _16
REMARK    9  A    between atoms: _19  and  _21
REMARK   10  A    between atoms: _21  and  _22
REMARK   11  A    between atoms: _24  and  _26
REMARK   12  A    between atoms: _26  and  _27
REMARK   13  A    between atoms: _26  and  _29
REMARK   14  A    between atoms: _29  and  _30
REMARK   15  A    between atoms: _33  and  _35
REMARK   16  A    between atoms: _35  and  _36
REMARK   17  A    between atoms: _38  and  _40
REMARK   18  A    between atoms: _40  and  _41
REMARK   19  A    between atoms: _40  and  _43
REMARK   20  A    between atoms: _43  and  _44
REMARK   21  A    between atoms: _46  and  _48
REMARK   22  A    between atoms: _48  and  _49
REMARK   23  A    between atoms: _48  and  _51
REMARK   24  A    between atoms: _51  and  _52
REMARK   25  A    between atoms: _58  and  _60
REMARK   26  A    between atoms: _60  and  _61
REMARK   27  A    between atoms: _63  and  _65
REMARK   28  A    between atoms: _65  and  _66
REMARK   29  A    between atoms: _65  and  _68
REMARK   30  A    between atoms: _68  and  _69
REMARK   31  A    between atoms: _69  and  _70
REMARK   32  A    between atoms: _70  and  _71
REMARK   33  A    between atoms: _80  and  _82
REMARK   34  A    between atoms: _82  and  _83
REMARK   35  A    between atoms: _82  and  _85
REMARK   36  A    between atoms: _88  and  _90
REMARK   37  A    between atoms: _90  and  _91
REMARK   38  A    between atoms: _90  and  _93
REMARK   39  A    between atoms: _93  and  _94
REMARK   40  A    between atoms: _94  and  _95
REMARK   41  A    between atoms: _97  and  _99
REMARK   42  A    between atoms: _99  and  _100
REMARK   43  A    between atoms: _99  and  _102
REMARK   44  A    between atoms: _102  and  _103
REMARK   45  A    between atoms: _106  and  _108
REMARK   46  A    between atoms: _108  and  _109
REMARK   47  A    between atoms: _108  and  _111
REMARK   48  A    between atoms: _111  and  _112
REMARK   49  A    between atoms: _117  and  _118
REMARK   50  A    between atoms: _120  and  _122
REMARK   51  A    between atoms: _122  and  _123
REMARK   52  A    between atoms: _126  and  _128
REMARK   53  A    between atoms: _128  and  _129
REMARK   54  A    between atoms: _128  and  _131
REMARK   55  A    between atoms: _131  and  _132
REMARK   56  A    between atoms: _132  and  _133
REMARK   57  A    between atoms: _135  and  _137
REMARK   58  A    between atoms: _137  and  _138
REMARK   59  A    between atoms: _137  and  _140
REMARK   60  A    between atoms: _140  and  _141
REMARK   61  A    between atoms: _141  and  _142
REMARK   62  A    between atoms: _142  and  _143
REMARK   63  A    between atoms: _143  and  _144
REMARK   64  A    between atoms: _148  and  _150
REMARK   65  A    between atoms: _150  and  _151
REMARK   66  A    between atoms: _150  and  _153
REMARK   67  A    between atoms: _153  and  _154
REMARK   68  A    between atoms: _157  and  _159
REMARK   69  A    between atoms: _159  and  _160
REMARK   70  A    between atoms: _159  and  _162
REMARK   71  A    between atoms: _162  and  _163
REMARK   72  A    between atoms: _166  and  _168
REMARK   73  A    between atoms: _168  and  _169
REMARK   74  A    between atoms: _168  and  _171
REMARK   75  A    between atoms: _171  and  _172
REMARK   76  A    between atoms: _175  and  _177
REMARK   77  A    between atoms: _177  and  _178
REMARK   78  A    between atoms: _177  and  _180
REMARK   79  A    between atoms: _180  and  _181
REMARK   80  A    between atoms: _181  and  _182
REMARK   81  A    between atoms: _182  and  _183
REMARK   82  A    between atoms: _183  and  _184
REMARK   83  A    between atoms: _188  and  _190
REMARK   84  A    between atoms: _190  and  _191
REMARK   85  A    between atoms: _190  and  _193
REMARK   86  A    between atoms: _196  and  _198
REMARK   87  A    between atoms: _198  and  _199
REMARK   88  A    between atoms: _198  and  _201
REMARK   89  A    between atoms: _201  and  _202
REMARK   90  A    between atoms: _205  and  _207
REMARK   91  A    between atoms: _207  and  _208
REMARK   92  A    between atoms: _207  and  _210
REMARK   93  A    between atoms: _210  and  _211
REMARK   94  A    between atoms: _211  and  _212
REMARK   95  A    between atoms: _212  and  _213
REMARK   96  A    between atoms: _213  and  _214
REMARK   97  A    between atoms: _218  and  _220
REMARK   98  A    between atoms: _220  and  _221
REMARK   99  A    between atoms: _220  and  _223
REMARK  100  A    between atoms: _223  and  _224
REMARK  101  A    between atoms: _224  and  _225
REMARK  102  A    between atoms: _230  and  _232
REMARK  103  A    between atoms: _232  and  _233
REMARK  104  A    between atoms: _232  and  _235
REMARK  105  A    between atoms: _235  and  _236
REMARK  106  A    between atoms: _241  and  _243
REMARK  107  A    between atoms: _243  and  _244
REMARK  108  A    between atoms: _243  and  _246
REMARK  109  A    between atoms: _246  and  _247
REMARK  110  A    between atoms: _250  and  _252
REMARK  111  A    between atoms: _252  and  _253
REMARK  112  A    between atoms: _252  and  _255
REMARK  113  A    between atoms: _255  and  _256
REMARK  114  A    between atoms: _256  and  _257
REMARK  115  A    between atoms: _260  and  _262
REMARK  116  A    between atoms: _262  and  _263
REMARK  117  A    between atoms: _262  and  _265
REMARK  118  A    between atoms: _265  and  _266
REMARK  119  A    between atoms: _269  and  _271
REMARK  120  A    between atoms: _271  and  _272
REMARK  121  A    between atoms: _271  and  _274
REMARK  122  A    between atoms: _277  and  _279
REMARK  123  A    between atoms: _279  and  _280
REMARK  124  A    between atoms: _279  and  _282
REMARK  125  A    between atoms: _282  and  _283
REMARK  126  A    between atoms: _283  and  _284
REMARK  127  A    between atoms: _284  and  _285
REMARK  128  A    between atoms: _285  and  _286
REMARK  129  A    between atoms: _290  and  _292
REMARK  130  A    between atoms: _292  and  _293
REMARK  131  A    between atoms: _292  and  _295
REMARK  132  A    between atoms: _295  and  _296
REMARK  133  A    between atoms: _296  and  _297
REMARK  134  A    between atoms: _299  and  _301
REMARK  135  A    between atoms: _301  and  _302
REMARK  136  A    between atoms: _301  and  _304
REMARK  137  A    between atoms: _304  and  _305
REMARK  138  A    between atoms: _305  and  _306
REMARK  139  A    between atoms: _308  and  _310
REMARK  140  A    between atoms: _310  and  _311
REMARK  141  A    between atoms: _310  and  _313
REMARK  142  A    between atoms: _313  and  _314
REMARK  143  A    between atoms: _314  and  _315
REMARK  144  A    between atoms: _318  and  _320
REMARK  145  A    between atoms: _320  and  _321
REMARK  146  A    between atoms: _320  and  _323
REMARK  147  A    between atoms: _323  and  _324
REMARK  148  A    between atoms: _329  and  _330
REMARK  149  A    between atoms: _332  and  _334
REMARK  150  A    between atoms: _334  and  _335
REMARK  151  A    between atoms: _334  and  _337
REMARK  152  A    between atoms: _341  and  _342
REMARK  153  A    between atoms: _347  and  _349
REMARK  154  A    between atoms: _349  and  _350
REMARK  155  A    between atoms: _352  and  _354
REMARK  156  A    between atoms: _354  and  _355
REMARK  157  A    between atoms: _357  and  _359
REMARK  158  A    between atoms: _359  and  _360
REMARK  159  A    between atoms: _359  and  _362
REMARK  160  A    between atoms: _362  and  _363
REMARK  161  A    between atoms: _363  and  _364
REMARK  162  A    between atoms: _367  and  _369
REMARK  163  A    between atoms: _369  and  _370
REMARK  164  A    between atoms: _369  and  _372
REMARK  165  A    between atoms: _372  and  _373
REMARK  166  A    between atoms: _373  and  _374
REMARK  167  A    between atoms: _376  and  _378
REMARK  168  A    between atoms: _378  and  _379
REMARK  169  A    between atoms: _378  and  _381
REMARK  170  A    between atoms: _381  and  _382
REMARK  171  A    between atoms: _388  and  _390
REMARK  172  A    between atoms: _390  and  _391
REMARK  173  A    between atoms: _390  and  _393
REMARK  174  A    between atoms: _393  and  _394
REMARK  175  A    between atoms: _399  and  _400
REMARK  176  A    between atoms: _402  and  _404
REMARK  177  A    between atoms: _404  and  _405
REMARK  178  A    between atoms: _404  and  _407
REMARK  179  A    between atoms: _407  and  _408
REMARK  180  A    between atoms: _411  and  _413
REMARK  181  A    between atoms: _413  and  _414
REMARK  182  A    between atoms: _413  and  _416
REMARK  183  A    between atoms: _416  and  _417
REMARK  184  A    between atoms: _417  and  _418
REMARK  185  A    between atoms: _418  and  _419
REMARK  186  A    between atoms: _419  and  _420
REMARK  187  A    between atoms: _425  and  _426
REMARK  188  A    between atoms: _431  and  _433
REMARK  189  A    between atoms: _433  and  _434
REMARK  190  A    between atoms: _433  and  _436
REMARK  191  A    between atoms: _436  and  _437
REMARK  192  A    between atoms: _437  and  _438
REMARK  193  A    between atoms: _441  and  _443
REMARK  194  A    between atoms: _443  and  _444
REMARK  195  A    between atoms: _443  and  _446
REMARK  196  A    between atoms: _446  and  _447
REMARK  197  A    between atoms: _452  and  _454
REMARK  198  A    between atoms: _454  and  _455
REMARK  199  A    between atoms: _454  and  _457
REMARK  200  A    between atoms: _457  and  _458
REMARK  201  A    between atoms: _461  and  _463
REMARK  202  A    between atoms: _463  and  _464
REMARK  203  A    between atoms: _463  and  _466
REMARK  204  A    between atoms: _466  and  _467
REMARK  205  A    between atoms: _470  and  _472
REMARK  206  A    between atoms: _472  and  _473
REMARK  207  A    between atoms: _472  and  _475
REMARK  208  A    between atoms: _475  and  _476
REMARK  209  A    between atoms: _479  and  _481
REMARK  210  A    between atoms: _481  and  _482
REMARK  211  A    between atoms: _481  and  _484
REMARK  212  A    between atoms: _484  and  _485
REMARK  213  A    between atoms: _485  and  _486
REMARK  214  A    between atoms: _491  and  _493
REMARK  215  A    between atoms: _493  and  _494
REMARK  216  A    between atoms: _493  and  _496
REMARK  217  A    between atoms: _499  and  _501
REMARK  218  A    between atoms: _501  and  _502
REMARK  219  A    between atoms: _501  and  _504
REMARK  220  A    between atoms: _504  and  _505
REMARK  221  A    between atoms: _508  and  _510
REMARK  222  A    between atoms: _510  and  _511
REMARK  223  A    between atoms: _510  and  _513
REMARK  224  A    between atoms: _513  and  _514
REMARK  225  A    between atoms: _517  and  _519
REMARK  226  A    between atoms: _519  and  _520
REMARK  227  A    between atoms: _519  and  _522
REMARK  228  A    between atoms: _522  and  _523
REMARK  229  A    between atoms: _529  and  _531
REMARK  230  A    between atoms: _531  and  _532
REMARK  231  A    between atoms: _534  and  _536
REMARK  232  A    between atoms: _536  and  _537
REMARK  233  A    between atoms: _536  and  _539
REMARK  234  A    between atoms: _539  and  _540
REMARK  235  A    between atoms: _546  and  _548
REMARK  236  A    between atoms: _548  and  _549
REMARK  237  A    between atoms: _552  and  _554
REMARK  238  A    between atoms: _554  and  _555
REMARK  239  A    between atoms: _557  and  _559
REMARK  240  A    between atoms: _559  and  _560
REMARK  241  A    between atoms: _559  and  _562
REMARK  242  A    between atoms: _562  and  _563
REMARK  243  A    between atoms: _566  and  _568
REMARK  244  A    between atoms: _568  and  _569
REMARK  245  A    between atoms: _568  and  _571
REMARK  246  A    between atoms: _571  and  _572
REMARK  247  A    between atoms: _578  and  _580
REMARK  248  A    between atoms: _580  and  _581
REMARK  249  A    between atoms: _580  and  _583
REMARK  250  A    between atoms: _583  and  _584
REMARK  251  A    between atoms: _589  and  _590
REMARK                            x       y       z     vdW  Elec       q    Type
REMARK                         _______ _______ _______ _____ _____    ______ ____
ROOT
ATOM      1  C   HIS A   1      14.442  11.214 -11.373  0.00  0.00    +0.239 C 
ATOM      2  O   HIS A   1      13.434  10.574 -11.112  0.00  0.00    -0.274 OA
ATOM      3  N   THR A   2      14.550  12.524 -11.136  0.00  0.00    -0.296 N 
ATOM      4  H   THR A   2      15.424  13.018 -11.406  0.00  0.00    +0.150 HD
ENDROOT
BRANCH   1   5
ATOM      5  CA  HIS A   1      15.621  10.533 -12.063  0.00  0.00    +0.151 C 
BRANCH   5   6
ATOM      6  N   HIS A   1      16.218  11.380 -13.102  0.00  0.00    -0.238 NA
ATOM      7  H   HIS A   1      17.209  11.680 -13.006  0.00  0.00    +0.142 HD
ENDBRANCH   5   6
BRANCH   5   8
ATOM      8  CB  HIS A   1      16.693  10.067 -11.054  0.00  0.00    +0.074 C 
BRANCH   8   9
ATOM      9  CG  HIS A   1      17.614   9.001 -11.602  0.00  0.00    +0.082 A 
ATOM     10  ND1 HIS A   1      18.846   8.716 -11.049  0.00  0.00    -0.227 NA
ATOM     11  CE1 HIS A   1      19.431   7.759 -11.747  0.00  0.00    +0.199 A 
ATOM     12  NE2 HIS A   1      18.615   7.402 -12.725  0.00  0.00    -0.221 NA
ATOM     13  CD2 HIS A   1      17.480   8.169 -12.663  0.00  0.00    +0.115 A 
ENDBRANCH   8   9
ENDBRANCH   5   8
ENDBRANCH   1   5
BRANCH   3  14
ATOM     14  CA  THR A   2      13.475  13.277 -10.509  0.00  0.00    +0.164 C 
BRANCH  14  15
ATOM     15  CB  THR A   2      13.974  14.639 -10.076  0.00  0.00    +0.136 C 
ATOM     16  CG2 THR A   2      12.868  15.337  -9.253  0.00  0.00    +0.034 C 
BRANCH  15  17
ATOM     17  OG1 THR A   2      15.070  14.469  -9.130  0.00  0.00    -0.382 OA
ATOM     18  HG1 THR A   2      15.805  13.968  -9.565  0.00  0.00    +0.210 HD
ENDBRANCH  15  17
ENDBRANCH  14  15
BRANCH  14  19
ATOM     19  C   THR A   2      12.223  13.379 -11.413  0.00  0.00    +0.229 C 
ATOM     20  O   THR A   2      11.110  13.220 -10.955  0.00  0.00    -0.286 OA
ENDBRANCH  14  19
ENDBRANCH   3  14
TORSDOF 8
REMARK  Name = ../refined-set-2016/1xh5/1xh5_pocket.pdb
REMARK  251 active torsions:
REMARK  status: ('A' for Active; 'I' for Inactive)
REMARK    1  A    between atoms: _1  and  _3
REMARK    2  A    between atoms: _3  and  _4
REMARK    3  A    between atoms: _3  and  _6
REMARK    4  A    between atoms: _6  and  _7
REMARK    5  A    between atoms: _10  and  _12
REMARK    6  A    between atoms: _12  and  _13
REMARK    7  A    between atoms: _12  and  _15
REMARK    8  A    between atoms: _15  and  _16
REMARK    9  A    between atoms: _19  and  _21
REMARK   10  A    between atoms: _21  and  _22
REMARK   11  A    between atoms: _24  and  _26
REMARK   12  A    between atoms: _26  and  _27
REMARK   13  A    between atoms: _26  and  _29
REMARK   14  A    between atoms: _29  and  _30
REMARK   15  A    between atoms: _33  and  _35
REMARK   16  A    between atoms: _35  and  _36
REMARK   17  A    between atoms: _38  and  _40
REMARK   18  A    between atoms: _40  and  _41
REMARK   19  A    between atoms: _40  and  _43
REMARK   20  A    between atoms: _43  and  _44
REMARK   21  A    between atoms: _46  and  _48
REMARK   22  A    between atoms: _48  and  _49
REMARK   23  A    between atoms: _48  and  _51
REMARK   24  A    between atoms: _51  and  _52
REMARK   25  A    between atoms: _58  and  _60
REMARK   26  A    between atoms: _60  and  _61
REMARK   27  A    between atoms: _63  and  _65
REMARK   28  A    between atoms: _65  and  _66
REMARK   29  A    between atoms: _65  and  _68
REMARK   30  A    between atoms: _68  and  _69
REMARK   31  A    between atoms: _69  and  _70
REMARK   32  A    between atoms: _70  and  _71
REMARK   33  A    between atoms: _80  and  _82
REMARK   34  A    between atoms: _82  and  _83
REMARK   35  A    between atoms: _82  and  _85
REMARK   36  A    between atoms: _88  and  _90
REMARK   37  A    between atoms: _90  and  _91
REMARK   38  A    between atoms: _90  and  _93
REMARK   39  A    between atoms: _93  and  _94
REMARK   40  A    between atoms: _94  and  _95
REMARK   41  A    between atoms: _97  and  _99
REMARK   42  A    between atoms: _99  and  _100
REMARK   43  A    between atoms: _99  and  _102
REMARK   44  A    between atoms: _102  and  _103
REMARK   45  A    between atoms: _106  and  _108
REMARK   46  A    between atoms: _108  and  _109
REMARK   47  A    between atoms: _108  and  _111
REMARK   48  A    between atoms: _111  and  _112
REMARK   49  A    between atoms: _117  and  _118
REMARK   50  A    between atoms: _120  and  _122
REMARK   51  A    between atoms: _122  and  _123
REMARK   52  A    between atoms: _126  and  _128
REMARK   53  A    between atoms: _128  and  _129
REMARK   54  A    between atoms: _128  and  _131
REMARK   55  A    between atoms: _131  and  _132
REMARK   56  A    between atoms: _132  and  _133
REMARK   57  A    between atoms: _135  and  _137
REMARK   58  A    between atoms: _137  and  _138
REMARK   59  A    between atoms: _137  and  _140
REMARK   60  A    between atoms: _140  and  _141
REMARK   61  A    between atoms: _141  and  _142
REMARK   62  A    between atoms: _142  and  _143
REMARK   63  A    between atoms: _143  and  _144
REMARK   64  A    between atoms: _148  and  _150
REMARK   65  A    between atoms: _150  and  _151
REMARK   66  A    between atoms: _150  and  _153
REMARK   67  A    between atoms: _153  and  _154
REMARK   68  A    between atoms: _157  and  _159
REMARK   69  A    between atoms: _159  and  _160
REMARK   70  A    between atoms: _159  and  _162
REMARK   71  A    between atoms: _162  and  _163
REMARK   72  A    between atoms: _166  and  _168
REMARK   73  A    between atoms: _168  and  _169
REMARK   74  A    between atoms: _168  and  _171
REMARK   75  A    between atoms: _171  and  _172
REMARK   76  A    between atoms: _175  and  _177
REMARK   77  A    between atoms: _177  and  _178
REMARK   78  A    between atoms: _177  and  _180
REMARK   79  A    between atoms: _180  and  _181
REMARK   80  A    between atoms: _181  and  _182
REMARK   81  A    between atoms: _182  and  _183
REMARK   82  A    between atoms: _183  and  _184
REMARK   83  A    between atoms: _188  and  _190
REMARK   84  A    between atoms: _190  and  _191
REMARK   85  A    between atoms: _190  and  _193
REMARK   86  A    between atoms: _196  and  _198
REMARK   87  A    between atoms: _198  and  _199
REMARK   88  A    between atoms: _198  and  _201
REMARK   89  A    between atoms: _201  and  _202
REMARK   90  A    between atoms: _205  and  _207
REMARK   91  A    between atoms: _207  and  _208
REMARK   92  A    between atoms: _207  and  _210
REMARK   93  A    between atoms: _210  and  _211
REMARK   94  A    between atoms: _211  and  _212
REMARK   95  A    between atoms: _212  and  _213
REMARK   96  A    between atoms: _213  and  _214
REMARK   97  A    between atoms: _218  and  _220
REMARK   98  A    between atoms: _220  and  _221
REMARK   99  A    between atoms: _220  and  _223
REMARK  100  A    between atoms: _223  and  _224
REMARK  101  A    between atoms: _224  and  _225
REMARK  102  A    between atoms: _230  and  _232
REMARK  103  A    between atoms: _232  and  _233
REMARK  104  A    between atoms: _232  and  _235
REMARK  105  A    between atoms: _235  and  _236
REMARK  106  A    between atoms: _241  and  _243
REMARK  107  A    between atoms: _243  and  _244
REMARK  108  A    between atoms: _243  and  _246
REMARK  109  A    between atoms: _246  and  _247
REMARK  110  A    between atoms: _250  and  _252
REMARK  111  A    between atoms: _252  and  _253
REMARK  112  A    between atoms: _252  and  _255
REMARK  113  A    between atoms: _255  and  _256
REMARK  114  A    between atoms: _256  and  _257
REMARK  115  A    between atoms: _260  and  _262
REMARK  116  A    between atoms: _262  and  _263
REMARK  117  A    between atoms: _262  and  _265
REMARK  118  A    between atoms: _265  and  _266
REMARK  119  A    between atoms: _269  and  _271
REMARK  120  A    between atoms: _271  and  _272
REMARK  121  A    between atoms: _271  and  _274
REMARK  122  A    between atoms: _277  and  _279
REMARK  123  A    between atoms: _279  and  _280
REMARK  124  A    between atoms: _279  and  _282
REMARK  125  A    between atoms: _282  and  _283
REMARK  126  A    between atoms: _283  and  _284
REMARK  127  A    between atoms: _284  and  _285
REMARK  128  A    between atoms: _285  and  _286
REMARK  129  A    between atoms: _290  and  _292
REMARK  130  A    between atoms: _292  and  _293
REMARK  131  A    between atoms: _292  and  _295
REMARK  132  A    between atoms: _295  and  _296
REMARK  133  A    between atoms: _296  and  _297
REMARK  134  A    between atoms: _299  and  _301
REMARK  135  A    between atoms: _301  and  _302
REMARK  136  A    between atoms: _301  and  _304
REMARK  137  A    between atoms: _304  and  _305
REMARK  138  A    between atoms: _305  and  _306
REMARK  139  A    between atoms: _308  and  _310
REMARK  140  A    between atoms: _310  and  _311
REMARK  141  A    between atoms: _310  and  _313
REMARK  142  A    between atoms: _313  and  _314
REMARK  143  A    between atoms: _314  and  _315
REMARK  144  A    between atoms: _318  and  _320
REMARK  145  A    between atoms: _320  and  _321
REMARK  146  A    between atoms: _320  and  _323
REMARK  147  A    between atoms: _323  and  _324
REMARK  148  A    between atoms: _329  and  _330
REMARK  149  A    between atoms: _332  and  _334
REMARK  150  A    between atoms: _334  and  _335
REMARK  151  A    between atoms: _334  and  _337
REMARK  152  A    between atoms: _341  and  _342
REMARK  153  A    between atoms: _347  and  _349
REMARK  154  A    between atoms: _349  and  _350
REMARK  155  A    between atoms: _352  and  _354
REMARK  156  A    between atoms: _354  and  _355
REMARK  157  A    between atoms: _357  and  _359
REMARK  158  A    between atoms: _359  and  _360
REMARK  159  A    between atoms: _359  and  _362
REMARK  160  A    between atoms: _362  and  _363
REMARK  161  A    between atoms: _363  and  _364
REMARK  162  A    between atoms: _367  and  _369
REMARK  163  A    between atoms: _369  and  _370
REMARK  164  A    between atoms: _369  and  _372
REMARK  165  A    between atoms: _372  and  _373
REMARK  166  A    between atoms: _373  and  _374
REMARK  167  A    between atoms: _376  and  _378
REMARK  168  A    between atoms: _378  and  _379
REMARK  169  A    between atoms: _378  and  _381
REMARK  170  A    between atoms: _381  and  _382
REMARK  171  A    between atoms: _388  and  _390
REMARK  172  A    between atoms: _390  and  _391
REMARK  173  A    between atoms: _390  and  _393
REMARK  174  A    between atoms: _393  and  _394
REMARK  175  A    between atoms: _399  and  _400
REMARK  176  A    between atoms: _402  and  _404
REMARK  177  A    between atoms: _404  and  _405
REMARK  178  A    between atoms: _404  and  _407
REMARK  179  A    between atoms: _407  and  _408
REMARK  180  A    between atoms: _411  and  _413
REMARK  181  A    between atoms: _413  and  _414
REMARK  182  A    between atoms: _413  and  _416
REMARK  183  A    between atoms: _416  and  _417
REMARK  184  A    between atoms: _417  and  _418
REMARK  185  A    between atoms: _418  and  _419
REMARK  186  A    between atoms: _419  and  _420
REMARK  187  A    between atoms: _425  and  _426
REMARK  188  A    between atoms: _431  and  _433
REMARK  189  A    between atoms: _433  and  _434
REMARK  190  A    between atoms: _433  and  _436
REMARK  191  A    between atoms: _436  and  _437
REMARK  192  A    between atoms: _437  and  _438
REMARK  193  A    between atoms: _441  and  _443
REMARK  194  A    between atoms: _443  and  _444
REMARK  195  A    between atoms: _443  and  _446
REMARK  196  A    between atoms: _446  and  _447
REMARK  197  A    between atoms: _452  and  _454
REMARK  198  A    between atoms: _454  and  _455
REMARK  199  A    between atoms: _454  and  _457
REMARK  200  A    between atoms: _457  and  _458
REMARK  201  A    between atoms: _461  and  _463
REMARK  202  A    between atoms: _463  and  _464
REMARK  203  A    between atoms: _463  and  _466
REMARK  204  A    between atoms: _466  and  _467
REMARK  205  A    between atoms: _470  and  _472
REMARK  206  A    between atoms: _472  and  _473
REMARK  207  A    between atoms: _472  and  _475
REMARK  208  A    between atoms: _475  and  _476
REMARK  209  A    between atoms: _479  and  _481
REMARK  210  A    between atoms: _481  and  _482
REMARK  211  A    between atoms: _481  and  _484
REMARK  212  A    between atoms: _484  and  _485
REMARK  213  A    between atoms: _485  and  _486
REMARK  214  A    between atoms: _491  and  _493
REMARK  215  A    between atoms: _493  and  _494
REMARK  216  A    between atoms: _493  and  _496
REMARK  217  A    between atoms: _499  and  _501
REMARK  218  A    between atoms: _501  and  _502
REMARK  219  A    between atoms: _501  and  _504
REMARK  220  A    between atoms: _504  and  _505
REMARK  221  A    between atoms: _508  and  _510
REMARK  222  A    between atoms: _510  and  _511
REMARK  223  A    between atoms: _510  and  _513
REMARK  224  A    between atoms: _513  and  _514
REMARK  225  A    between atoms: _517  and  _519
REMARK  226  A    between atoms: _519  and  _520
REMARK  227  A    between atoms: _519  and  _522
REMARK  228  A    between atoms: _522  and  _523
REMARK  229  A    between atoms: _529  and  _531
REMARK  230  A    between atoms: _531  and  _532
REMARK  231  A    between atoms: _534  and  _536
REMARK  232  A    between atoms: _536  and  _537
REMARK  233  A    between atoms: _536  and  _539
REMARK  234  A    between atoms: _539  and  _540
REMARK  235  A    between atoms: _546  and  _548
REMARK  236  A    between atoms: _548  and  _549
REMARK  237  A    between atoms: _552  and  _554
REMARK  238  A    between atoms: _554  and  _555
REMARK  239  A    between atoms: _557  and  _559
REMARK  240  A    between atoms: _559  and  _560
REMARK  241  A    between atoms: _559  and  _562
REMARK  242  A    between atoms: _562  and  _563
REMARK  243  A    between atoms: _566  and  _568
REMARK  244  A    between atoms: _568  and  _569
REMARK  245  A    between atoms: _568  and  _571
REMARK  246  A    between atoms: _571  and  _572
REMARK  247  A    between atoms: _578  and  _580
REMARK  248  A    between atoms: _580  and  _581
REMARK  249  A    between atoms: _580  and  _583
REMARK  250  A    between atoms: _583  and  _584
REMARK  251  A    between atoms: _589  and  _590
REMARK                            x       y       z     vdW  Elec       q    Type
REMARK                         _______ _______ _______ _____ _____    ______ ____
ROOT
ATOM      1  CA  GLU A   1       9.669   9.907 -10.056  0.00  0.00    +0.134 C 
ENDROOT
BRANCH   1   2
ATOM      2  N   GLU A   1      10.459  10.060 -11.270  0.00  0.00    -0.239 NA
ATOM      3  H   GLU A   1      11.377  10.545 -11.212  0.00  0.00    +0.142 HD
ENDBRANCH   1   2
BRANCH   1   4
ATOM      4  C   GLU A   1       8.281  10.503 -10.209  0.00  0.00    +0.224 C 
ATOM      5  O   GLU A   1       7.287   9.840  -9.955  0.00  0.00    -0.287 OA
ENDBRANCH   1   4
BRANCH   1   6
ATOM      6  CB  GLU A   1      10.374  10.534  -8.831  0.00  0.00    +0.037 C 
BRANCH   6   7
ATOM      7  CG  GLU A   1       9.453  10.706  -7.626  0.00  0.00    +0.116 C 
BRANCH   7   8
ATOM      8  CD  GLU A   1      10.183  11.153  -6.338  0.00  0.00    +0.365 C 
ATOM      9  OE2 GLU A   1       9.837  10.700  -5.245  0.00  0.00    -0.246 OA
ATOM     10  OE1 GLU A   1      11.093  11.964  -6.423  0.00  0.00    -0.246 OA
ENDBRANCH   7   8
ENDBRANCH   6   7
ENDBRANCH   1   6
TORSDOF 5
REMARK  Name = ../refined-set-2016/1xh5/1xh5_pocket.pdb
REMARK  251 active torsions:
REMARK  status: ('A' for Active; 'I' for Inactive)
REMARK    1  A    between atoms: _1  and  _3
REMARK    2  A    between atoms: _3  and  _4
REMARK    3  A    between atoms: _3  and  _6
REMARK    4  A    between atoms: _6  and  _7
REMARK    5  A    between atoms: _10  and  _12
REMARK    6  A    between atoms: _12  and  _13
REMARK    7  A    between atoms: _12  and  _15
REMARK    8  A    between atoms: _15  and  _16
REMARK    9  A    between atoms: _19  and  _21
REMARK   10  A    between atoms: _21  and  _22
REMARK   11  A    between atoms: _24  and  _26
REMARK   12  A    between atoms: _26  and  _27
REMARK   13  A    between atoms: _26  and  _29
REMARK   14  A    between atoms: _29  and  _30
REMARK   15  A    between atoms: _33  and  _35
REMARK   16  A    between atoms: _35  and  _36
REMARK   17  A    between atoms: _38  and  _40
REMARK   18  A    between atoms: _40  and  _41
REMARK   19  A    between atoms: _40  and  _43
REMARK   20  A    between atoms: _43  and  _44
REMARK   21  A    between atoms: _46  and  _48
REMARK   22  A    between atoms: _48  and  _49
REMARK   23  A    between atoms: _48  and  _51
REMARK   24  A    between atoms: _51  and  _52
REMARK   25  A    between atoms: _58  and  _60
REMARK   26  A    between atoms: _60  and  _61
REMARK   27  A    between atoms: _63  and  _65
REMARK   28  A    between atoms: _65  and  _66
REMARK   29  A    between atoms: _65  and  _68
REMARK   30  A    between atoms: _68  and  _69
REMARK   31  A    between atoms: _69  and  _70
REMARK   32  A    between atoms: _70  and  _71
REMARK   33  A    between atoms: _80  and  _82
REMARK   34  A    between atoms: _82  and  _83
REMARK   35  A    between atoms: _82  and  _85
REMARK   36  A    between atoms: _88  and  _90
REMARK   37  A    between atoms: _90  and  _91
REMARK   38  A    between atoms: _90  and  _93
REMARK   39  A    between atoms: _93  and  _94
REMARK   40  A    between atoms: _94  and  _95
REMARK   41  A    between atoms: _97  and  _99
REMARK   42  A    between atoms: _99  and  _100
REMARK   43  A    between atoms: _99  and  _102
REMARK   44  A    between atoms: _102  and  _103
REMARK   45  A    between atoms: _106  and  _108
REMARK   46  A    between atoms: _108  and  _109
REMARK   47  A    between atoms: _108  and  _111
REMARK   48  A    between atoms: _111  and  _112
REMARK   49  A    between atoms: _117  and  _118
REMARK   50  A    between atoms: _120  and  _122
REMARK   51  A    between atoms: _122  and  _123
REMARK   52  A    between atoms: _126  and  _128
REMARK   53  A    between atoms: _128  and  _129
REMARK   54  A    between atoms: _128  and  _131
REMARK   55  A    between atoms: _131  and  _132
REMARK   56  A    between atoms: _132  and  _133
REMARK   57  A    between atoms: _135  and  _137
REMARK   58  A    between atoms: _137  and  _138
REMARK   59  A    between atoms: _137  and  _140
REMARK   60  A    between atoms: _140  and  _141
REMARK   61  A    between atoms: _141  and  _142
REMARK   62  A    between atoms: _142  and  _143
REMARK   63  A    between atoms: _143  and  _144
REMARK   64  A    between atoms: _148  and  _150
REMARK   65  A    between atoms: _150  and  _151
REMARK   66  A    between atoms: _150  and  _153
REMARK   67  A    between atoms: _153  and  _154
REMARK   68  A    between atoms: _157  and  _159
REMARK   69  A    between atoms: _159  and  _160
REMARK   70  A    between atoms: _159  and  _162
REMARK   71  A    between atoms: _162  and  _163
REMARK   72  A    between atoms: _166  and  _168
REMARK   73  A    between atoms: _168  and  _169
REMARK   74  A    between atoms: _168  and  _171
REMARK   75  A    between atoms: _171  and  _172
REMARK   76  A    between atoms: _175  and  _177
REMARK   77  A    between atoms: _177  and  _178
REMARK   78  A    between atoms: _177  and  _180
REMARK   79  A    between atoms: _180  and  _181
REMARK   80  A    between atoms: _181  and  _182
REMARK   81  A    between atoms: _182  and  _183
REMARK   82  A    between atoms: _183  and  _184
REMARK   83  A    between atoms: _188  and  _190
REMARK   84  A    between atoms: _190  and  _191
REMARK   85  A    between atoms: _190  and  _193
REMARK   86  A    between atoms: _196  and  _198
REMARK   87  A    between atoms: _198  and  _199
REMARK   88  A    between atoms: _198  and  _201
REMARK   89  A    between atoms: _201  and  _202
REMARK   90  A    between atoms: _205  and  _207
REMARK   91  A    between atoms: _207  and  _208
REMARK   92  A    between atoms: _207  and  _210
REMARK   93  A    between atoms: _210  and  _211
REMARK   94  A    between atoms: _211  and  _212
REMARK   95  A    between atoms: _212  and  _213
REMARK   96  A    between atoms: _213  and  _214
REMARK   97  A    between atoms: _218  and  _220
REMARK   98  A    between atoms: _220  and  _221
REMARK   99  A    between atoms: _220  and  _223
REMARK  100  A    between atoms: _223  and  _224
REMARK  101  A    between atoms: _224  and  _225
REMARK  102  A    between atoms: _230  and  _232
REMARK  103  A    between atoms: _232  and  _233
REMARK  104  A    between atoms: _232  and  _235
REMARK  105  A    between atoms: _235  and  _236
REMARK  106  A    between atoms: _241  and  _243
REMARK  107  A    between atoms: _243  and  _244
REMARK  108  A    between atoms: _243  and  _246
REMARK  109  A    between atoms: _246  and  _247
REMARK  110  A    between atoms: _250  and  _252
REMARK  111  A    between atoms: _252  and  _253
REMARK  112  A    between atoms: _252  and  _255
REMARK  113  A    between atoms: _255  and  _256
REMARK  114  A    between atoms: _256  and  _257
REMARK  115  A    between atoms: _260  and  _262
REMARK  116  A    between atoms: _262  and  _263
REMARK  117  A    between atoms: _262  and  _265
REMARK  118  A    between atoms: _265  and  _266
REMARK  119  A    between atoms: _269  and  _271
REMARK  120  A    between atoms: _271  and  _272
REMARK  121  A    between atoms: _271  and  _274
REMARK  122  A    between atoms: _277  and  _279
REMARK  123  A    between atoms: _279  and  _280
REMARK  124  A    between atoms: _279  and  _282
REMARK  125  A    between atoms: _282  and  _283
REMARK  126  A    between atoms: _283  and  _284
REMARK  127  A    between atoms: _284  and  _285
REMARK  128  A    between atoms: _285  and  _286
REMARK  129  A    between atoms: _290  and  _292
REMARK  130  A    between atoms: _292  and  _293
REMARK  131  A    between atoms: _292  and  _295
REMARK  132  A    between atoms: _295  and  _296
REMARK  133  A    between atoms: _296  and  _297
REMARK  134  A    between atoms: _299  and  _301
REMARK  135  A    between atoms: _301  and  _302
REMARK  136  A    between atoms: _301  and  _304
REMARK  137  A    between atoms: _304  and  _305
REMARK  138  A    between atoms: _305  and  _306
REMARK  139  A    between atoms: _308  and  _310
REMARK  140  A    between atoms: _310  and  _311
REMARK  141  A    between atoms: _310  and  _313
REMARK  142  A    between atoms: _313  and  _314
REMARK  143  A    between atoms: _314  and  _315
REMARK  144  A    between atoms: _318  and  _320
REMARK  145  A    between atoms: _320  and  _321
REMARK  146  A    between atoms: _320  and  _323
REMARK  147  A    between atoms: _323  and  _324
REMARK  148  A    between atoms: _329  and  _330
REMARK  149  A    between atoms: _332  and  _334
REMARK  150  A    between atoms: _334  and  _335
REMARK  151  A    between atoms: _334  and  _337
REMARK  152  A    between atoms: _341  and  _342
REMARK  153  A    between atoms: _347  and  _349
REMARK  154  A    between atoms: _349  and  _350
REMARK  155  A    between atoms: _352  and  _354
REMARK  156  A    between atoms: _354  and  _355
REMARK  157  A    between atoms: _357  and  _359
REMARK  158  A    between atoms: _359  and  _360
REMARK  159  A    between atoms: _359  and  _362
REMARK  160  A    between atoms: _362  and  _363
REMARK  161  A    between atoms: _363  and  _364
REMARK  162  A    between atoms: _367  and  _369
REMARK  163  A    between atoms: _369  and  _370
REMARK  164  A    between atoms: _369  and  _372
REMARK  165  A    between atoms: _372  and  _373
REMARK  166  A    between atoms: _373  and  _374
REMARK  167  A    between atoms: _376  and  _378
REMARK  168  A    between atoms: _378  and  _379
REMARK  169  A    between atoms: _378  and  _381
REMARK  170  A    between atoms: _381  and  _382
REMARK  171  A    between atoms: _388  and  _390
REMARK  172  A    between atoms: _390  and  _391
REMARK  173  A    between atoms: _390  and  _393
REMARK  174  A    between atoms: _393  and  _394
REMARK  175  A    between atoms: _399  and  _400
REMARK  176  A    between atoms: _402  and  _404
REMARK  177  A    between atoms: _404  and  _405
REMARK  178  A    between atoms: _404  and  _407
REMARK  179  A    between atoms: _407  and  _408
REMARK  180  A    between atoms: _411  and  _413
REMARK  181  A    between atoms: _413  and  _414
REMARK  182  A    between atoms: _413  and  _416
REMARK  183  A    between atoms: _416  and  _417
REMARK  184  A    between atoms: _417  and  _418
REMARK  185  A    between atoms: _418  and  _419
REMARK  186  A    between atoms: _419  and  _420
REMARK  187  A    between atoms: _425  and  _426
REMARK  188  A    between atoms: _431  and  _433
REMARK  189  A    between atoms: _433  and  _434
REMARK  190  A    between atoms: _433  and  _436
REMARK  191  A    between atoms: _436  and  _437
REMARK  192  A    between atoms: _437  and  _438
REMARK  193  A    between atoms: _441  and  _443
REMARK  194  A    between atoms: _443  and  _444
REMARK  195  A    between atoms: _443  and  _446
REMARK  196  A    between atoms: _446  and  _447
REMARK  197  A    between atoms: _452  and  _454
REMARK  198  A    between atoms: _454  and  _455
REMARK  199  A    between atoms: _454  and  _457
REMARK  200  A    between atoms: _457  and  _458
REMARK  201  A    between atoms: _461  and  _463
REMARK  202  A    between atoms: _463  and  _464
REMARK  203  A    between atoms: _463  and  _466
REMARK  204  A    between atoms: _466  and  _467
REMARK  205  A    between atoms: _470  and  _472
REMARK  206  A    between atoms: _472  and  _473
REMARK  207  A    between atoms: _472  and  _475
REMARK  208  A    between atoms: _475  and  _476
REMARK  209  A    between atoms: _479  and  _481
REMARK  210  A    between atoms: _481  and  _482
REMARK  211  A    between atoms: _481  and  _484
REMARK  212  A    between atoms: _484  and  _485
REMARK  213  A    between atoms: _485  and  _486
REMARK  214  A    between atoms: _491  and  _493
REMARK  215  A    between atoms: _493  and  _494
REMARK  216  A    between atoms: _493  and  _496
REMARK  217  A    between atoms: _499  and  _501
REMARK  218  A    between atoms: _501  and  _502
REMARK  219  A    between atoms: _501  and  _504
REMARK  220  A    between atoms: _504  and  _505
REMARK  221  A    between atoms: _508  and  _510
REMARK  222  A    between atoms: _510  and  _511
REMARK  223  A    between atoms: _510  and  _513
REMARK  224  A    between atoms: _513  and  _514
REMARK  225  A    between atoms: _517  and  _519
REMARK  226  A    between atoms: _519  and  _520
REMARK  227  A    between atoms: _519  and  _522
REMARK  228  A    between atoms: _522  and  _523
REMARK  229  A    between atoms: _529  and  _531
REMARK  230  A    between atoms: _531  and  _532
REMARK  231  A    between atoms: _534  and  _536
REMARK  232  A    between atoms: _536  and  _537
REMARK  233  A    between atoms: _536  and  _539
REMARK  234  A    between atoms: _539  and  _540
REMARK  235  A    between atoms: _546  and  _548
REMARK  236  A    between atoms: _548  and  _549
REMARK  237  A    between atoms: _552  and  _554
REMARK  238  A    between atoms: _554  and  _555
REMARK  239  A    between atoms: _557  and  _559
REMARK  240  A    between atoms: _559  and  _560
REMARK  241  A    between atoms: _559  and  _562
REMARK  242  A    between atoms: _562  and  _563
REMARK  243  A    between atoms: _566  and  _568
REMARK  244  A    between atoms: _568  and  _569
REMARK  245  A    between atoms: _568  and  _571
REMARK  246  A    between atoms: _571  and  _572
REMARK  247  A    between atoms: _578  and  _580
REMARK  248  A    between atoms: _580  and  _581
REMARK  249  A    between atoms: _580  and  _583
REMARK  250  A    between atoms: _583  and  _584
REMARK  251  A    between atoms: _589  and  _590
REMARK                            x       y       z     vdW  Elec       q    Type
REMARK                         _______ _______ _______ _____ _____    ______ ____
ROOT
ATOM      1  CA  LEU A   1       3.868   8.510  -9.494  0.00  0.00    +0.133 C 
ENDROOT
BRANCH   1   2
ATOM      2  N   LEU A   1       4.785   8.485 -10.617  0.00  0.00    -0.239 NA
ATOM      3  H   LEU A   1       5.628   9.094 -10.617  0.00  0.00    +0.142 HD
ENDBRANCH   1   2
BRANCH   1   4
ATOM      4  C   LEU A   1       2.487   9.042  -9.921  0.00  0.00    +0.224 C 
ATOM      5  O   LEU A   1       1.449   8.540  -9.464  0.00  0.00    -0.287 OA
ENDBRANCH   1   4
BRANCH   1   6
ATOM      6  CB  LEU A   1       4.394   9.368  -8.343  0.00  0.00    +0.025 C 
BRANCH   6   7
ATOM      7  CG  LEU A   1       4.712   8.714  -7.002  0.00  0.00    +0.002 C 
ATOM      8  CD2 LEU A   1       4.853   9.828  -5.970  0.00  0.00    +0.000 C 
ATOM      9  CD1 LEU A   1       3.711   7.664  -6.564  0.00  0.00    +0.000 C 
ENDBRANCH   6   7
ENDBRANCH   1   6
TORSDOF 4
REMARK  Name = ../refined-set-2016/1xh5/1xh5_pocket.pdb
REMARK  251 active torsions:
REMARK  status: ('A' for Active; 'I' for Inactive)
REMARK    1  A    between atoms: _1  and  _3
REMARK    2  A    between atoms: _3  and  _4
REMARK    3  A    between atoms: _3  and  _6
REMARK    4  A    between atoms: _6  and  _7
REMARK    5  A    between atoms: _10  and  _12
REMARK    6  A    between atoms: _12  and  _13
REMARK    7  A    between atoms: _12  and  _15
REMARK    8  A    between atoms: _15  and  _16
REMARK    9  A    between atoms: _19  and  _21
REMARK   10  A    between atoms: _21  and  _22
REMARK   11  A    between atoms: _24  and  _26
REMARK   12  A    between atoms: _26  and  _27
REMARK   13  A    between atoms: _26  and  _29
REMARK   14  A    between atoms: _29  and  _30
REMARK   15  A    between atoms: _33  and  _35
REMARK   16  A    between atoms: _35  and  _36
REMARK   17  A    between atoms: _38  and  _40
REMARK   18  A    between atoms: _40  and  _41
REMARK   19  A    between atoms: _40  and  _43
REMARK   20  A    between atoms: _43  and  _44
REMARK   21  A    between atoms: _46  and  _48
REMARK   22  A    between atoms: _48  and  _49
REMARK   23  A    between atoms: _48  and  _51
REMARK   24  A    between atoms: _51  and  _52
REMARK   25  A    between atoms: _58  and  _60
REMARK   26  A    between atoms: _60  and  _61
REMARK   27  A    between atoms: _63  and  _65
REMARK   28  A    between atoms: _65  and  _66
REMARK   29  A    between atoms: _65  and  _68
REMARK   30  A    between atoms: _68  and  _69
REMARK   31  A    between atoms: _69  and  _70
REMARK   32  A    between atoms: _70  and  _71
REMARK   33  A    between atoms: _80  and  _82
REMARK   34  A    between atoms: _82  and  _83
REMARK   35  A    between atoms: _82  and  _85
REMARK   36  A    between atoms: _88  and  _90
REMARK   37  A    between atoms: _90  and  _91
REMARK   38  A    between atoms: _90  and  _93
REMARK   39  A    between atoms: _93  and  _94
REMARK   40  A    between atoms: _94  and  _95
REMARK   41  A    between atoms: _97  and  _99
REMARK   42  A    between atoms: _99  and  _100
REMARK   43  A    between atoms: _99  and  _102
REMARK   44  A    between atoms: _102  and  _103
REMARK   45  A    between atoms: _106  and  _108
REMARK   46  A    between atoms: _108  and  _109
REMARK   47  A    between atoms: _108  and  _111
REMARK   48  A    between atoms: _111  and  _112
REMARK   49  A    between atoms: _117  and  _118
REMARK   50  A    between atoms: _120  and  _122
REMARK   51  A    between atoms: _122  and  _123
REMARK   52  A    between atoms: _126  and  _128
REMARK   53  A    between atoms: _128  and  _129
REMARK   54  A    between atoms: _128  and  _131
REMARK   55  A    between atoms: _131  and  _132
REMARK   56  A    between atoms: _132  and  _133
REMARK   57  A    between atoms: _135  and  _137
REMARK   58  A    between atoms: _137  and  _138
REMARK   59  A    between atoms: _137  and  _140
REMARK   60  A    between atoms: _140  and  _141
REMARK   61  A    between atoms: _141  and  _142
REMARK   62  A    between atoms: _142  and  _143
REMARK   63  A    between atoms: _143  and  _144
REMARK   64  A    between atoms: _148  and  _150
REMARK   65  A    between atoms: _150  and  _151
REMARK   66  A    between atoms: _150  and  _153
REMARK   67  A    between atoms: _153  and  _154
REMARK   68  A    between atoms: _157  and  _159
REMARK   69  A    between atoms: _159  and  _160
REMARK   70  A    between atoms: _159  and  _162
REMARK   71  A    between atoms: _162  and  _163
REMARK   72  A    between atoms: _166  and  _168
REMARK   73  A    between atoms: _168  and  _169
REMARK   74  A    between atoms: _168  and  _171
REMARK   75  A    between atoms: _171  and  _172
REMARK   76  A    between atoms: _175  and  _177
REMARK   77  A    between atoms: _177  and  _178
REMARK   78  A    between atoms: _177  and  _180
REMARK   79  A    between atoms: _180  and  _181
REMARK   80  A    between atoms: _181  and  _182
REMARK   81  A    between atoms: _182  and  _183
REMARK   82  A    between atoms: _183  and  _184
REMARK   83  A    between atoms: _188  and  _190
REMARK   84  A    between atoms: _190  and  _191
REMARK   85  A    between atoms: _190  and  _193
REMARK   86  A    between atoms: _196  and  _198
REMARK   87  A    between atoms: _198  and  _199
REMARK   88  A    between atoms: _198  and  _201
REMARK   89  A    between atoms: _201  and  _202
REMARK   90  A    between atoms: _205  and  _207
REMARK   91  A    between atoms: _207  and  _208
REMARK   92  A    between atoms: _207  and  _210
REMARK   93  A    between atoms: _210  and  _211
REMARK   94  A    between atoms: _211  and  _212
REMARK   95  A    between atoms: _212  and  _213
REMARK   96  A    between atoms: _213  and  _214
REMARK   97  A    between atoms: _218  and  _220
REMARK   98  A    between atoms: _220  and  _221
REMARK   99  A    between atoms: _220  and  _223
REMARK  100  A    between atoms: _223  and  _224
REMARK  101  A    between atoms: _224  and  _225
REMARK  102  A    between atoms: _230  and  _232
REMARK  103  A    between atoms: _232  and  _233
REMARK  104  A    between atoms: _232  and  _235
REMARK  105  A    between atoms: _235  and  _236
REMARK  106  A    between atoms: _241  and  _243
REMARK  107  A    between atoms: _243  and  _244
REMARK  108  A    between atoms: _243  and  _246
REMARK  109  A    between atoms: _246  and  _247
REMARK  110  A    between atoms: _250  and  _252
REMARK  111  A    between atoms: _252  and  _253
REMARK  112  A    between atoms: _252  and  _255
REMARK  113  A    between atoms: _255  and  _256
REMARK  114  A    between atoms: _256  and  _257
REMARK  115  A    between atoms: _260  and  _262
REMARK  116  A    between atoms: _262  and  _263
REMARK  117  A    between atoms: _262  and  _265
REMARK  118  A    between atoms: _265  and  _266
REMARK  119  A    between atoms: _269  and  _271
REMARK  120  A    between atoms: _271  and  _272
REMARK  121  A    between atoms: _271  and  _274
REMARK  122  A    between atoms: _277  and  _279
REMARK  123  A    between atoms: _279  and  _280
REMARK  124  A    between atoms: _279  and  _282
REMARK  125  A    between atoms: _282  and  _283
REMARK  126  A    between atoms: _283  and  _284
REMARK  127  A    between atoms: _284  and  _285
REMARK  128  A    between atoms: _285  and  _286
REMARK  129  A    between atoms: _290  and  _292
REMARK  130  A    between atoms: _292  and  _293
REMARK  131  A    between atoms: _292  and  _295
REMARK  132  A    between atoms: _295  and  _296
REMARK  133  A    between atoms: _296  and  _297
REMARK  134  A    between atoms: _299  and  _301
REMARK  135  A    between atoms: _301  and  _302
REMARK  136  A    between atoms: _301  and  _304
REMARK  137  A    between atoms: _304  and  _305
REMARK  138  A    between atoms: _305  and  _306
REMARK  139  A    between atoms: _308  and  _310
REMARK  140  A    between atoms: _310  and  _311
REMARK  141  A    between atoms: _310  and  _313
REMARK  142  A    between atoms: _313  and  _314
REMARK  143  A    between atoms: _314  and  _315
REMARK  144  A    between atoms: _318  and  _320
REMARK  145  A    between atoms: _320  and  _321
REMARK  146  A    between atoms: _320  and  _323
REMARK  147  A    between atoms: _323  and  _324
REMARK  148  A    between atoms: _329  and  _330
REMARK  149  A    between atoms: _332  and  _334
REMARK  150  A    between atoms: _334  and  _335
REMARK  151  A    between atoms: _334  and  _337
REMARK  152  A    between atoms: _341  and  _342
REMARK  153  A    between atoms: _347  and  _349
REMARK  154  A    between atoms: _349  and  _350
REMARK  155  A    between atoms: _352  and  _354
REMARK  156  A    between atoms: _354  and  _355
REMARK  157  A    between atoms: _357  and  _359
REMARK  158  A    between atoms: _359  and  _360
REMARK  159  A    between atoms: _359  and  _362
REMARK  160  A    between atoms: _362  and  _363
REMARK  161  A    between atoms: _363  and  _364
REMARK  162  A    between atoms: _367  and  _369
REMARK  163  A    between atoms: _369  and  _370
REMARK  164  A    between atoms: _369  and  _372
REMARK  165  A    between atoms: _372  and  _373
REMARK  166  A    between atoms: _373  and  _374
REMARK  167  A    between atoms: _376  and  _378
REMARK  168  A    between atoms: _378  and  _379
REMARK  169  A    between atoms: _378  and  _381
REMARK  170  A    between atoms: _381  and  _382
REMARK  171  A    between atoms: _388  and  _390
REMARK  172  A    between atoms: _390  and  _391
REMARK  173  A    between atoms: _390  and  _393
REMARK  174  A    between atoms: _393  and  _394
REMARK  175  A    between atoms: _399  and  _400
REMARK  176  A    between atoms: _402  and  _404
REMARK  177  A    between atoms: _404  and  _405
REMARK  178  A    between atoms: _404  and  _407
REMARK  179  A    between atoms: _407  and  _408
REMARK  180  A    between atoms: _411  and  _413
REMARK  181  A    between atoms: _413  and  _414
REMARK  182  A    between atoms: _413  and  _416
REMARK  183  A    between atoms: _416  and  _417
REMARK  184  A    between atoms: _417  and  _418
REMARK  185  A    between atoms: _418  and  _419
REMARK  186  A    between atoms: _419  and  _420
REMARK  187  A    between atoms: _425  and  _426
REMARK  188  A    between atoms: _431  and  _433
REMARK  189  A    between atoms: _433  and  _434
REMARK  190  A    between atoms: _433  and  _436
REMARK  191  A    between atoms: _436  and  _437
REMARK  192  A    between atoms: _437  and  _438
REMARK  193  A    between atoms: _441  and  _443
REMARK  194  A    between atoms: _443  and  _444
REMARK  195  A    between atoms: _443  and  _446
REMARK  196  A    between atoms: _446  and  _447
REMARK  197  A    between atoms: _452  and  _454
REMARK  198  A    between atoms: _454  and  _455
REMARK  199  A    between atoms: _454  and  _457
REMARK  200  A    between atoms: _457  and  _458
REMARK  201  A    between atoms: _461  and  _463
REMARK  202  A    between atoms: _463  and  _464
REMARK  203  A    between atoms: _463  and  _466
REMARK  204  A    between atoms: _466  and  _467
REMARK  205  A    between atoms: _470  and  _472
REMARK  206  A    between atoms: _472  and  _473
REMARK  207  A    between atoms: _472  and  _475
REMARK  208  A    between atoms: _475  and  _476
REMARK  209  A    between atoms: _479  and  _481
REMARK  210  A    between atoms: _481  and  _482
REMARK  211  A    between atoms: _481  and  _484
REMARK  212  A    between atoms: _484  and  _485
REMARK  213  A    between atoms: _485  and  _486
REMARK  214  A    between atoms: _491  and  _493
REMARK  215  A    between atoms: _493  and  _494
REMARK  216  A    between atoms: _493  and  _496
REMARK  217  A    between atoms: _499  and  _501
REMARK  218  A    between atoms: _501  and  _502
REMARK  219  A    between atoms: _501  and  _504
REMARK  220  A    between atoms: _504  and  _505
REMARK  221  A    between atoms: _508  and  _510
REMARK  222  A    between atoms: _510  and  _511
REMARK  223  A    between atoms: _510  and  _513
REMARK  224  A    between atoms: _513  and  _514
REMARK  225  A    between atoms: _517  and  _519
REMARK  226  A    between atoms: _519  and  _520
REMARK  227  A    between atoms: _519  and  _522
REMARK  228  A    between atoms: _522  and  _523
REMARK  229  A    between atoms: _529  and  _531
REMARK  230  A    between atoms: _531  and  _532
REMARK  231  A    between atoms: _534  and  _536
REMARK  232  A    between atoms: _536  and  _537
REMARK  233  A    between atoms: _536  and  _539
REMARK  234  A    between atoms: _539  and  _540
REMARK  235  A    between atoms: _546  and  _548
REMARK  236  A    between atoms: _548  and  _549
REMARK  237  A    between atoms: _552  and  _554
REMARK  238  A    between atoms: _554  and  _555
REMARK  239  A    between atoms: _557  and  _559
REMARK  240  A    between atoms: _559  and  _560
REMARK  241  A    between atoms: _559  and  _562
REMARK  242  A    between atoms: _562  and  _563
REMARK  243  A    between atoms: _566  and  _568
REMARK  244  A    between atoms: _568  and  _569
REMARK  245  A    between atoms: _568  and  _571
REMARK  246  A    between atoms: _571  and  _572
REMARK  247  A    between atoms: _578  and  _580
REMARK  248  A    between atoms: _580  and  _581
REMARK  249  A    between atoms: _580  and  _583
REMARK  250  A    between atoms: _583  and  _584
REMARK  251  A    between atoms: _589  and  _590
REMARK                            x       y       z     vdW  Elec       q    Type
REMARK                         _______ _______ _______ _____ _____    ______ ____
ROOT
ATOM      1  CA  LYS A   2      -1.231   8.115  -4.143  0.00  0.00    +0.137 C 
ENDROOT
BRANCH   1   3
ATOM      2  C   VAL A   1       0.617   6.741  -3.378  0.00  0.00    +0.238 C 
ATOM      3  N   LYS A   2      -0.499   7.403  -3.098  0.00  0.00    -0.298 N 
ATOM      4  H   LYS A   2      -0.857   7.415  -2.122  0.00  0.00    +0.150 HD
ATOM      5  O   VAL A   1       1.132   6.788  -4.473  0.00  0.00    -0.274 OA
BRANCH   2   6
ATOM      6  CA  VAL A   1       1.229   5.903  -2.264  0.00  0.00    +0.145 C 
BRANCH   6   7
ATOM      7  CB  VAL A   1       2.329   6.690  -1.528  0.00  0.00    +0.025 C 
ATOM      8  CG2 VAL A   1       1.720   7.751  -0.666  0.00  0.00    +0.002 C 
ATOM      9  CG1 VAL A   1       3.367   7.301  -2.491  0.00  0.00    +0.002 C 
ENDBRANCH   6   7
BRANCH   6  10
ATOM     10  N   VAL A   1       1.695   4.616  -2.764  0.00  0.00    -0.238 NA
ATOM     11  H   VAL A   1       2.670   4.310  -2.573  0.00  0.00    +0.142 HD
ENDBRANCH   6  10
ENDBRANCH   2   6
ENDBRANCH   1   3
BRANCH   1  12
ATOM     12  C   LYS A   2      -0.855   9.582  -4.228  0.00  0.00    +0.227 C 
ATOM     13  O   LYS A   2      -1.004  10.331  -3.245  0.00  0.00    -0.286 OA
ENDBRANCH   1  12
BRANCH   1  14
ATOM     14  CB  LYS A   2      -2.735   7.990  -3.924  0.00  0.00    +0.028 C 
BRANCH  14  15
ATOM     15  CG  LYS A   2      -3.605   8.698  -4.983  0.00  0.00    -0.000 C 
BRANCH  15  16
ATOM     16  CD  LYS A   2      -5.069   8.741  -4.540  0.00  0.00    -0.024 C 
BRANCH  16  17
ATOM     17  CE  LYS A   2      -5.989   9.296  -5.663  0.00  0.00    -0.086 C 
BRANCH  17  18
ATOM     18  NZ  LYS A   2      -7.355   9.659  -5.035  0.00  0.00    +0.380 N 
ATOM     19  HZ1 LYS A   2      -7.216  10.379  -4.298  0.00  0.00    -0.089 HD
ATOM     20  HZ2 LYS A   2      -7.779   8.808  -4.614  0.00  0.00    -0.089 HD
ATOM     21  HZ3 LYS A   2      -7.986  10.033  -5.772  0.00  0.00    -0.089 HD
ENDBRANCH  17  18
ENDBRANCH  16  17
ENDBRANCH  15  16
ENDBRANCH  14  15
ENDBRANCH   1  14
TORSDOF 10
REMARK  Name = ../refined-set-2016/1xh5/1xh5_pocket.pdb
REMARK  251 active torsions:
REMARK  status: ('A' for Active; 'I' for Inactive)
REMARK    1  A    between atoms: _1  and  _3
REMARK    2  A    between atoms: _3  and  _4
REMARK    3  A    between atoms: _3  and  _6
REMARK    4  A    between atoms: _6  and  _7
REMARK    5  A    between atoms: _10  and  _12
REMARK    6  A    between atoms: _12  and  _13
REMARK    7  A    between atoms: _12  and  _15
REMARK    8  A    between atoms: _15  and  _16
REMARK    9  A    between atoms: _19  and  _21
REMARK   10  A    between atoms: _21  and  _22
REMARK   11  A    between atoms: _24  and  _26
REMARK   12  A    between atoms: _26  and  _27
REMARK   13  A    between atoms: _26  and  _29
REMARK   14  A    between atoms: _29  and  _30
REMARK   15  A    between atoms: _33  and  _35
REMARK   16  A    between atoms: _35  and  _36
REMARK   17  A    between atoms: _38  and  _40
REMARK   18  A    between atoms: _40  and  _41
REMARK   19  A    between atoms: _40  and  _43
REMARK   20  A    between atoms: _43  and  _44
REMARK   21  A    between atoms: _46  and  _48
REMARK   22  A    between atoms: _48  and  _49
REMARK   23  A    between atoms: _48  and  _51
REMARK   24  A    between atoms: _51  and  _52
REMARK   25  A    between atoms: _58  and  _60
REMARK   26  A    between atoms: _60  and  _61
REMARK   27  A    between atoms: _63  and  _65
REMARK   28  A    between atoms: _65  and  _66
REMARK   29  A    between atoms: _65  and  _68
REMARK   30  A    between atoms: _68  and  _69
REMARK   31  A    between atoms: _69  and  _70
REMARK   32  A    between atoms: _70  and  _71
REMARK   33  A    between atoms: _80  and  _82
REMARK   34  A    between atoms: _82  and  _83
REMARK   35  A    between atoms: _82  and  _85
REMARK   36  A    between atoms: _88  and  _90
REMARK   37  A    between atoms: _90  and  _91
REMARK   38  A    between atoms: _90  and  _93
REMARK   39  A    between atoms: _93  and  _94
REMARK   40  A    between atoms: _94  and  _95
REMARK   41  A    between atoms: _97  and  _99
REMARK   42  A    between atoms: _99  and  _100
REMARK   43  A    between atoms: _99  and  _102
REMARK   44  A    between atoms: _102  and  _103
REMARK   45  A    between atoms: _106  and  _108
REMARK   46  A    between atoms: _108  and  _109
REMARK   47  A    between atoms: _108  and  _111
REMARK   48  A    between atoms: _111  and  _112
REMARK   49  A    between atoms: _117  and  _118
REMARK   50  A    between atoms: _120  and  _122
REMARK   51  A    between atoms: _122  and  _123
REMARK   52  A    between atoms: _126  and  _128
REMARK   53  A    between atoms: _128  and  _129
REMARK   54  A    between atoms: _128  and  _131
REMARK   55  A    between atoms: _131  and  _132
REMARK   56  A    between atoms: _132  and  _133
REMARK   57  A    between atoms: _135  and  _137
REMARK   58  A    between atoms: _137  and  _138
REMARK   59  A    between atoms: _137  and  _140
REMARK   60  A    between atoms: _140  and  _141
REMARK   61  A    between atoms: _141  and  _142
REMARK   62  A    between atoms: _142  and  _143
REMARK   63  A    between atoms: _143  and  _144
REMARK   64  A    between atoms: _148  and  _150
REMARK   65  A    between atoms: _150  and  _151
REMARK   66  A    between atoms: _150  and  _153
REMARK   67  A    between atoms: _153  and  _154
REMARK   68  A    between atoms: _157  and  _159
REMARK   69  A    between atoms: _159  and  _160
REMARK   70  A    between atoms: _159  and  _162
REMARK   71  A    between atoms: _162  and  _163
REMARK   72  A    between atoms: _166  and  _168
REMARK   73  A    between atoms: _168  and  _169
REMARK   74  A    between atoms: _168  and  _171
REMARK   75  A    between atoms: _171  and  _172
REMARK   76  A    between atoms: _175  and  _177
REMARK   77  A    between atoms: _177  and  _178
REMARK   78  A    between atoms: _177  and  _180
REMARK   79  A    between atoms: _180  and  _181
REMARK   80  A    between atoms: _181  and  _182
REMARK   81  A    between atoms: _182  and  _183
REMARK   82  A    between atoms: _183  and  _184
REMARK   83  A    between atoms: _188  and  _190
REMARK   84  A    between atoms: _190  and  _191
REMARK   85  A    between atoms: _190  and  _193
REMARK   86  A    between atoms: _196  and  _198
REMARK   87  A    between atoms: _198  and  _199
REMARK   88  A    between atoms: _198  and  _201
REMARK   89  A    between atoms: _201  and  _202
REMARK   90  A    between atoms: _205  and  _207
REMARK   91  A    between atoms: _207  and  _208
REMARK   92  A    between atoms: _207  and  _210
REMARK   93  A    between atoms: _210  and  _211
REMARK   94  A    between atoms: _211  and  _212
REMARK   95  A    between atoms: _212  and  _213
REMARK   96  A    between atoms: _213  and  _214
REMARK   97  A    between atoms: _218  and  _220
REMARK   98  A    between atoms: _220  and  _221
REMARK   99  A    between atoms: _220  and  _223
REMARK  100  A    between atoms: _223  and  _224
REMARK  101  A    between atoms: _224  and  _225
REMARK  102  A    between atoms: _230  and  _232
REMARK  103  A    between atoms: _232  and  _233
REMARK  104  A    between atoms: _232  and  _235
REMARK  105  A    between atoms: _235  and  _236
REMARK  106  A    between atoms: _241  and  _243
REMARK  107  A    between atoms: _243  and  _244
REMARK  108  A    between atoms: _243  and  _246
REMARK  109  A    between atoms: _246  and  _247
REMARK  110  A    between atoms: _250  and  _252
REMARK  111  A    between atoms: _252  and  _253
REMARK  112  A    between atoms: _252  and  _255
REMARK  113  A    between atoms: _255  and  _256
REMARK  114  A    between atoms: _256  and  _257
REMARK  115  A    between atoms: _260  and  _262
REMARK  116  A    between atoms: _262  and  _263
REMARK  117  A    between atoms: _262  and  _265
REMARK  118  A    between atoms: _265  and  _266
REMARK  119  A    between atoms: _269  and  _271
REMARK  120  A    between atoms: _271  and  _272
REMARK  121  A    between atoms: _271  and  _274
REMARK  122  A    between atoms: _277  and  _279
REMARK  123  A    between atoms: _279  and  _280
REMARK  124  A    between atoms: _279  and  _282
REMARK  125  A    between atoms: _282  and  _283
REMARK  126  A    between atoms: _283  and  _284
REMARK  127  A    between atoms: _284  and  _285
REMARK  128  A    between atoms: _285  and  _286
REMARK  129  A    between atoms: _290  and  _292
REMARK  130  A    between atoms: _292  and  _293
REMARK  131  A    between atoms: _292  and  _295
REMARK  132  A    between atoms: _295  and  _296
REMARK  133  A    between atoms: _296  and  _297
REMARK  134  A    between atoms: _299  and  _301
REMARK  135  A    between atoms: _301  and  _302
REMARK  136  A    between atoms: _301  and  _304
REMARK  137  A    between atoms: _304  and  _305
REMARK  138  A    between atoms: _305  and  _306
REMARK  139  A    between atoms: _308  and  _310
REMARK  140  A    between atoms: _310  and  _311
REMARK  141  A    between atoms: _310  and  _313
REMARK  142  A    between atoms: _313  and  _314
REMARK  143  A    between atoms: _314  and  _315
REMARK  144  A    between atoms: _318  and  _320
REMARK  145  A    between atoms: _320  and  _321
REMARK  146  A    between atoms: _320  and  _323
REMARK  147  A    between atoms: _323  and  _324
REMARK  148  A    between atoms: _329  and  _330
REMARK  149  A    between atoms: _332  and  _334
REMARK  150  A    between atoms: _334  and  _335
REMARK  151  A    between atoms: _334  and  _337
REMARK  152  A    between atoms: _341  and  _342
REMARK  153  A    between atoms: _347  and  _349
REMARK  154  A    between atoms: _349  and  _350
REMARK  155  A    between atoms: _352  and  _354
REMARK  156  A    between atoms: _354  and  _355
REMARK  157  A    between atoms: _357  and  _359
REMARK  158  A    between atoms: _359  and  _360
REMARK  159  A    between atoms: _359  and  _362
REMARK  160  A    between atoms: _362  and  _363
REMARK  161  A    between atoms: _363  and  _364
REMARK  162  A    between atoms: _367  and  _369
REMARK  163  A    between atoms: _369  and  _370
REMARK  164  A    between atoms: _369  and  _372
REMARK  165  A    between atoms: _372  and  _373
REMARK  166  A    between atoms: _373  and  _374
REMARK  167  A    between atoms: _376  and  _378
REMARK  168  A    between atoms: _378  and  _379
REMARK  169  A    between atoms: _378  and  _381
REMARK  170  A    between atoms: _381  and  _382
REMARK  171  A    between atoms: _388  and  _390
REMARK  172  A    between atoms: _390  and  _391
REMARK  173  A    between atoms: _390  and  _393
REMARK  174  A    between atoms: _393  and  _394
REMARK  175  A    between atoms: _399  and  _400
REMARK  176  A    between atoms: _402  and  _404
REMARK  177  A    between atoms: _404  and  _405
REMARK  178  A    between atoms: _404  and  _407
REMARK  179  A    between atoms: _407  and  _408
REMARK  180  A    between atoms: _411  and  _413
REMARK  181  A    between atoms: _413  and  _414
REMARK  182  A    between atoms: _413  and  _416
REMARK  183  A    between atoms: _416  and  _417
REMARK  184  A    between atoms: _417  and  _418
REMARK  185  A    between atoms: _418  and  _419
REMARK  186  A    between atoms: _419  and  _420
REMARK  187  A    between atoms: _425  and  _426
REMARK  188  A    between atoms: _431  and  _433
REMARK  189  A    between atoms: _433  and  _434
REMARK  190  A    between atoms: _433  and  _436
REMARK  191  A    between atoms: _436  and  _437
REMARK  192  A    between atoms: _437  and  _438
REMARK  193  A    between atoms: _441  and  _443
REMARK  194  A    between atoms: _443  and  _444
REMARK  195  A    between atoms: _443  and  _446
REMARK  196  A    between atoms: _446  and  _447
REMARK  197  A    between atoms: _452  and  _454
REMARK  198  A    between atoms: _454  and  _455
REMARK  199  A    between atoms: _454  and  _457
REMARK  200  A    between atoms: _457  and  _458
REMARK  201  A    between atoms: _461  and  _463
REMARK  202  A    between atoms: _463  and  _464
REMARK  203  A    between atoms: _463  and  _466
REMARK  204  A    between atoms: _466  and  _467
REMARK  205  A    between atoms: _470  and  _472
REMARK  206  A    between atoms: _472  and  _473
REMARK  207  A    between atoms: _472  and  _475
REMARK  208  A    between atoms: _475  and  _476
REMARK  209  A    between atoms: _479  and  _481
REMARK  210  A    between atoms: _481  and  _482
REMARK  211  A    between atoms: _481  and  _484
REMARK  212  A    between atoms: _484  and  _485
REMARK  213  A    between atoms: _485  and  _486
REMARK  214  A    between atoms: _491  and  _493
REMARK  215  A    between atoms: _493  and  _494
REMARK  216  A    between atoms: _493  and  _496
REMARK  217  A    between atoms: _499  and  _501
REMARK  218  A    between atoms: _501  and  _502
REMARK  219  A    between atoms: _501  and  _504
REMARK  220  A    between atoms: _504  and  _505
REMARK  221  A    between atoms: _508  and  _510
REMARK  222  A    between atoms: _510  and  _511
REMARK  223  A    between atoms: _510  and  _513
REMARK  224  A    between atoms: _513  and  _514
REMARK  225  A    between atoms: _517  and  _519
REMARK  226  A    between atoms: _519  and  _520
REMARK  227  A    between atoms: _519  and  _522
REMARK  228  A    between atoms: _522  and  _523
REMARK  229  A    between atoms: _529  and  _531
REMARK  230  A    between atoms: _531  and  _532
REMARK  231  A    between atoms: _534  and  _536
REMARK  232  A    between atoms: _536  and  _537
REMARK  233  A    between atoms: _536  and  _539
REMARK  234  A    between atoms: _539  and  _540
REMARK  235  A    between atoms: _546  and  _548
REMARK  236  A    between atoms: _548  and  _549
REMARK  237  A    between atoms: _552  and  _554
REMARK  238  A    between atoms: _554  and  _555
REMARK  239  A    between atoms: _557  and  _559
REMARK  240  A    between atoms: _559  and  _560
REMARK  241  A    between atoms: _559  and  _562
REMARK  242  A    between atoms: _562  and  _563
REMARK  243  A    between atoms: _566  and  _568
REMARK  244  A    between atoms: _568  and  _569
REMARK  245  A    between atoms: _568  and  _571
REMARK  246  A    between atoms: _571  and  _572
REMARK  247  A    between atoms: _578  and  _580
REMARK  248  A    between atoms: _580  and  _581
REMARK  249  A    between atoms: _580  and  _583
REMARK  250  A    between atoms: _583  and  _584
REMARK  251  A    between atoms: _589  and  _590
REMARK                            x       y       z     vdW  Elec       q    Type
REMARK                         _______ _______ _______ _____ _____    ______ ____
ROOT
ATOM      1  CA  MET A   1       4.650  16.446  -4.786  0.00  0.00    +0.134 C 
ENDROOT
BRANCH   1   2
ATOM      2  N   MET A   1       5.559  17.571  -4.589  0.00  0.00    -0.239 NA
ATOM      3  H   MET A   1       6.162  17.565  -3.742  0.00  0.00    +0.142 HD
ENDBRANCH   1   2
BRANCH   1   4
ATOM      4  C   MET A   1       3.834  16.214  -3.513  0.00  0.00    +0.224 C 
ATOM      5  O   MET A   1       4.392  15.966  -2.435  0.00  0.00    -0.287 OA
ENDBRANCH   1   4
BRANCH   1   6
ATOM      6  CB  MET A   1       5.461  15.183  -5.148  0.00  0.00    +0.037 C 
BRANCH   6   7
ATOM      7  CG  MET A   1       5.983  15.186  -6.555  0.00  0.00    +0.059 C 
BRANCH   7   8
ATOM      8  SD  MET A   1       7.179  13.878  -6.890  0.00  0.00    -0.139 S 
ATOM      9  CE  MET A   1       8.635  14.653  -6.242  0.00  0.00    +0.069 C 
ENDBRANCH   7   8
ENDBRANCH   6   7
ENDBRANCH   1   6
TORSDOF 5
REMARK  Name = ../refined-set-2016/1xh5/1xh5_pocket.pdb
REMARK  251 active torsions:
REMARK  status: ('A' for Active; 'I' for Inactive)
REMARK    1  A    between atoms: _1  and  _3
REMARK    2  A    between atoms: _3  and  _4
REMARK    3  A    between atoms: _3  and  _6
REMARK    4  A    between atoms: _6  and  _7
REMARK    5  A    between atoms: _10  and  _12
REMARK    6  A    between atoms: _12  and  _13
REMARK    7  A    between atoms: _12  and  _15
REMARK    8  A    between atoms: _15  and  _16
REMARK    9  A    between atoms: _19  and  _21
REMARK   10  A    between atoms: _21  and  _22
REMARK   11  A    between atoms: _24  and  _26
REMARK   12  A    between atoms: _26  and  _27
REMARK   13  A    between atoms: _26  and  _29
REMARK   14  A    between atoms: _29  and  _30
REMARK   15  A    between atoms: _33  and  _35
REMARK   16  A    between atoms: _35  and  _36
REMARK   17  A    between atoms: _38  and  _40
REMARK   18  A    between atoms: _40  and  _41
REMARK   19  A    between atoms: _40  and  _43
REMARK   20  A    between atoms: _43  and  _44
REMARK   21  A    between atoms: _46  and  _48
REMARK   22  A    between atoms: _48  and  _49
REMARK   23  A    between atoms: _48  and  _51
REMARK   24  A    between atoms: _51  and  _52
REMARK   25  A    between atoms: _58  and  _60
REMARK   26  A    between atoms: _60  and  _61
REMARK   27  A    between atoms: _63  and  _65
REMARK   28  A    between atoms: _65  and  _66
REMARK   29  A    between atoms: _65  and  _68
REMARK   30  A    between atoms: _68  and  _69
REMARK   31  A    between atoms: _69  and  _70
REMARK   32  A    between atoms: _70  and  _71
REMARK   33  A    between atoms: _80  and  _82
REMARK   34  A    between atoms: _82  and  _83
REMARK   35  A    between atoms: _82  and  _85
REMARK   36  A    between atoms: _88  and  _90
REMARK   37  A    between atoms: _90  and  _91
REMARK   38  A    between atoms: _90  and  _93
REMARK   39  A    between atoms: _93  and  _94
REMARK   40  A    between atoms: _94  and  _95
REMARK   41  A    between atoms: _97  and  _99
REMARK   42  A    between atoms: _99  and  _100
REMARK   43  A    between atoms: _99  and  _102
REMARK   44  A    between atoms: _102  and  _103
REMARK   45  A    between atoms: _106  and  _108
REMARK   46  A    between atoms: _108  and  _109
REMARK   47  A    between atoms: _108  and  _111
REMARK   48  A    between atoms: _111  and  _112
REMARK   49  A    between atoms: _117  and  _118
REMARK   50  A    between atoms: _120  and  _122
REMARK   51  A    between atoms: _122  and  _123
REMARK   52  A    between atoms: _126  and  _128
REMARK   53  A    between atoms: _128  and  _129
REMARK   54  A    between atoms: _128  and  _131
REMARK   55  A    between atoms: _131  and  _132
REMARK   56  A    between atoms: _132  and  _133
REMARK   57  A    between atoms: _135  and  _137
REMARK   58  A    between atoms: _137  and  _138
REMARK   59  A    between atoms: _137  and  _140
REMARK   60  A    between atoms: _140  and  _141
REMARK   61  A    between atoms: _141  and  _142
REMARK   62  A    between atoms: _142  and  _143
REMARK   63  A    between atoms: _143  and  _144
REMARK   64  A    between atoms: _148  and  _150
REMARK   65  A    between atoms: _150  and  _151
REMARK   66  A    between atoms: _150  and  _153
REMARK   67  A    between atoms: _153  and  _154
REMARK   68  A    between atoms: _157  and  _159
REMARK   69  A    between atoms: _159  and  _160
REMARK   70  A    between atoms: _159  and  _162
REMARK   71  A    between atoms: _162  and  _163
REMARK   72  A    between atoms: _166  and  _168
REMARK   73  A    between atoms: _168  and  _169
REMARK   74  A    between atoms: _168  and  _171
REMARK   75  A    between atoms: _171  and  _172
REMARK   76  A    between atoms: _175  and  _177
REMARK   77  A    between atoms: _177  and  _178
REMARK   78  A    between atoms: _177  and  _180
REMARK   79  A    between atoms: _180  and  _181
REMARK   80  A    between atoms: _181  and  _182
REMARK   81  A    between atoms: _182  and  _183
REMARK   82  A    between atoms: _183  and  _184
REMARK   83  A    between atoms: _188  and  _190
REMARK   84  A    between atoms: _190  and  _191
REMARK   85  A    between atoms: _190  and  _193
REMARK   86  A    between atoms: _196  and  _198
REMARK   87  A    between atoms: _198  and  _199
REMARK   88  A    between atoms: _198  and  _201
REMARK   89  A    between atoms: _201  and  _202
REMARK   90  A    between atoms: _205  and  _207
REMARK   91  A    between atoms: _207  and  _208
REMARK   92  A    between atoms: _207  and  _210
REMARK   93  A    between atoms: _210  and  _211
REMARK   94  A    between atoms: _211  and  _212
REMARK   95  A    between atoms: _212  and  _213
REMARK   96  A    between atoms: _213  and  _214
REMARK   97  A    between atoms: _218  and  _220
REMARK   98  A    between atoms: _220  and  _221
REMARK   99  A    between atoms: _220  and  _223
REMARK  100  A    between atoms: _223  and  _224
REMARK  101  A    between atoms: _224  and  _225
REMARK  102  A    between atoms: _230  and  _232
REMARK  103  A    between atoms: _232  and  _233
REMARK  104  A    between atoms: _232  and  _235
REMARK  105  A    between atoms: _235  and  _236
REMARK  106  A    between atoms: _241  and  _243
REMARK  107  A    between atoms: _243  and  _244
REMARK  108  A    between atoms: _243  and  _246
REMARK  109  A    between atoms: _246  and  _247
REMARK  110  A    between atoms: _250  and  _252
REMARK  111  A    between atoms: _252  and  _253
REMARK  112  A    between atoms: _252  and  _255
REMARK  113  A    between atoms: _255  and  _256
REMARK  114  A    between atoms: _256  and  _257
REMARK  115  A    between atoms: _260  and  _262
REMARK  116  A    between atoms: _262  and  _263
REMARK  117  A    between atoms: _262  and  _265
REMARK  118  A    between atoms: _265  and  _266
REMARK  119  A    between atoms: _269  and  _271
REMARK  120  A    between atoms: _271  and  _272
REMARK  121  A    between atoms: _271  and  _274
REMARK  122  A    between atoms: _277  and  _279
REMARK  123  A    between atoms: _279  and  _280
REMARK  124  A    between atoms: _279  and  _282
REMARK  125  A    between atoms: _282  and  _283
REMARK  126  A    between atoms: _283  and  _284
REMARK  127  A    between atoms: _284  and  _285
REMARK  128  A    between atoms: _285  and  _286
REMARK  129  A    between atoms: _290  and  _292
REMARK  130  A    between atoms: _292  and  _293
REMARK  131  A    between atoms: _292  and  _295
REMARK  132  A    between atoms: _295  and  _296
REMARK  133  A    between atoms: _296  and  _297
REMARK  134  A    between atoms: _299  and  _301
REMARK  135  A    between atoms: _301  and  _302
REMARK  136  A    between atoms: _301  and  _304
REMARK  137  A    between atoms: _304  and  _305
REMARK  138  A    between atoms: _305  and  _306
REMARK  139  A    between atoms: _308  and  _310
REMARK  140  A    between atoms: _310  and  _311
REMARK  141  A    between atoms: _310  and  _313
REMARK  142  A    between atoms: _313  and  _314
REMARK  143  A    between atoms: _314  and  _315
REMARK  144  A    between atoms: _318  and  _320
REMARK  145  A    between atoms: _320  and  _321
REMARK  146  A    between atoms: _320  and  _323
REMARK  147  A    between atoms: _323  and  _324
REMARK  148  A    between atoms: _329  and  _330
REMARK  149  A    between atoms: _332  and  _334
REMARK  150  A    between atoms: _334  and  _335
REMARK  151  A    between atoms: _334  and  _337
REMARK  152  A    between atoms: _341  and  _342
REMARK  153  A    between atoms: _347  and  _349
REMARK  154  A    between atoms: _349  and  _350
REMARK  155  A    between atoms: _352  and  _354
REMARK  156  A    between atoms: _354  and  _355
REMARK  157  A    between atoms: _357  and  _359
REMARK  158  A    between atoms: _359  and  _360
REMARK  159  A    between atoms: _359  and  _362
REMARK  160  A    between atoms: _362  and  _363
REMARK  161  A    between atoms: _363  and  _364
REMARK  162  A    between atoms: _367  and  _369
REMARK  163  A    between atoms: _369  and  _370
REMARK  164  A    between atoms: _369  and  _372
REMARK  165  A    between atoms: _372  and  _373
REMARK  166  A    between atoms: _373  and  _374
REMARK  167  A    between atoms: _376  and  _378
REMARK  168  A    between atoms: _378  and  _379
REMARK  169  A    between atoms: _378  and  _381
REMARK  170  A    between atoms: _381  and  _382
REMARK  171  A    between atoms: _388  and  _390
REMARK  172  A    between atoms: _390  and  _391
REMARK  173  A    between atoms: _390  and  _393
REMARK  174  A    between atoms: _393  and  _394
REMARK  175  A    between atoms: _399  and  _400
REMARK  176  A    between atoms: _402  and  _404
REMARK  177  A    between atoms: _404  and  _405
REMARK  178  A    between atoms: _404  and  _407
REMARK  179  A    between atoms: _407  and  _408
REMARK  180  A    between atoms: _411  and  _413
REMARK  181  A    between atoms: _413  and  _414
REMARK  182  A    between atoms: _413  and  _416
REMARK  183  A    between atoms: _416  and  _417
REMARK  184  A    between atoms: _417  and  _418
REMARK  185  A    between atoms: _418  and  _419
REMARK  186  A    between atoms: _419  and  _420
REMARK  187  A    between atoms: _425  and  _426
REMARK  188  A    between atoms: _431  and  _433
REMARK  189  A    between atoms: _433  and  _434
REMARK  190  A    between atoms: _433  and  _436
REMARK  191  A    between atoms: _436  and  _437
REMARK  192  A    between atoms: _437  and  _438
REMARK  193  A    between atoms: _441  and  _443
REMARK  194  A    between atoms: _443  and  _444
REMARK  195  A    between atoms: _443  and  _446
REMARK  196  A    between atoms: _446  and  _447
REMARK  197  A    between atoms: _452  and  _454
REMARK  198  A    between atoms: _454  and  _455
REMARK  199  A    between atoms: _454  and  _457
REMARK  200  A    between atoms: _457  and  _458
REMARK  201  A    between atoms: _461  and  _463
REMARK  202  A    between atoms: _463  and  _464
REMARK  203  A    between atoms: _463  and  _466
REMARK  204  A    between atoms: _466  and  _467
REMARK  205  A    between atoms: _470  and  _472
REMARK  206  A    between atoms: _472  and  _473
REMARK  207  A    between atoms: _472  and  _475
REMARK  208  A    between atoms: _475  and  _476
REMARK  209  A    between atoms: _479  and  _481
REMARK  210  A    between atoms: _481  and  _482
REMARK  211  A    between atoms: _481  and  _484
REMARK  212  A    between atoms: _484  and  _485
REMARK  213  A    between atoms: _485  and  _486
REMARK  214  A    between atoms: _491  and  _493
REMARK  215  A    between atoms: _493  and  _494
REMARK  216  A    between atoms: _493  and  _496
REMARK  217  A    between atoms: _499  and  _501
REMARK  218  A    between atoms: _501  and  _502
REMARK  219  A    between atoms: _501  and  _504
REMARK  220  A    between atoms: _504  and  _505
REMARK  221  A    between atoms: _508  and  _510
REMARK  222  A    between atoms: _510  and  _511
REMARK  223  A    between atoms: _510  and  _513
REMARK  224  A    between atoms: _513  and  _514
REMARK  225  A    between atoms: _517  and  _519
REMARK  226  A    between atoms: _519  and  _520
REMARK  227  A    between atoms: _519  and  _522
REMARK  228  A    between atoms: _522  and  _523
REMARK  229  A    between atoms: _529  and  _531
REMARK  230  A    between atoms: _531  and  _532
REMARK  231  A    between atoms: _534  and  _536
REMARK  232  A    between atoms: _536  and  _537
REMARK  233  A    between atoms: _536  and  _539
REMARK  234  A    between atoms: _539  and  _540
REMARK  235  A    between atoms: _546  and  _548
REMARK  236  A    between atoms: _548  and  _549
REMARK  237  A    between atoms: _552  and  _554
REMARK  238  A    between atoms: _554  and  _555
REMARK  239  A    between atoms: _557  and  _559
REMARK  240  A    between atoms: _559  and  _560
REMARK  241  A    between atoms: _559  and  _562
REMARK  242  A    between atoms: _562  and  _563
REMARK  243  A    between atoms: _566  and  _568
REMARK  244  A    between atoms: _568  and  _569
REMARK  245  A    between atoms: _568  and  _571
REMARK  246  A    between atoms: _571  and  _572
REMARK  247  A    between atoms: _578  and  _580
REMARK  248  A    between atoms: _580  and  _581
REMARK  249  A    between atoms: _580  and  _583
REMARK  250  A    between atoms: _583  and  _584
REMARK  251  A    between atoms: _589  and  _590
REMARK                            x       y       z     vdW  Elec       q    Type
REMARK                         _______ _______ _______ _____ _____    ______ ____
ROOT
ATOM      1  C   VAL A   4       0.852   7.536   7.046  0.00  0.00    +0.244 C 
ATOM      2  N   PRO A   5      -0.091   7.624   8.005  0.00  0.00    -0.272 N 
ATOM      3  CA  PRO A   5       0.196   8.038   9.377  0.00  0.00    +0.152 C 
ATOM      4  CB  PRO A   5      -1.196   8.427   9.913  0.00  0.00    +0.031 C 
ATOM      5  CG  PRO A   5      -2.119   7.482   9.230  0.00  0.00    +0.024 C 
ATOM      6  CD  PRO A   5      -1.534   7.318   7.829  0.00  0.00    +0.094 C 
ATOM      7  O   VAL A   4       2.062   7.533   7.271  0.00  0.00    -0.273 OA
ENDROOT
BRANCH   3   8
ATOM      8  C   PRO A   5       0.800   6.991  10.303  0.00  0.00    +0.241 C 
ATOM      9  O   PRO A   5       1.249   7.394  11.367  0.00  0.00    -0.273 OA
ATOM     10  N   GLY A   6       0.812   5.725   9.912  0.00  0.00    -0.295 N 
ATOM     11  H   GLY A   6       0.405   5.493   8.983  0.00  0.00    +0.150 HD
BRANCH  10  12
ATOM     12  CA  GLY A   6       1.366   4.637  10.715  0.00  0.00    +0.176 C 
BRANCH  12  13
ATOM     13  C   GLY A   6       2.892   4.574  10.821  0.00  0.00    +0.243 C 
ATOM     14  O   GLY A   6       3.423   3.748  11.581  0.00  0.00    -0.273 OA
ATOM     15  N   GLY A   7       3.586   5.419  10.060  0.00  0.00    -0.295 N 
ATOM     16  H   GLY A   7       3.064   6.048   9.417  0.00  0.00    +0.150 HD
BRANCH  15  17
ATOM     17  CA  GLY A   7       5.042   5.505  10.085  0.00  0.00    +0.176 C 
BRANCH  17  18
ATOM     18  C   GLY A   7       5.710   4.448   9.235  0.00  0.00    +0.243 C 
ATOM     19  N   GLU A   8       7.027   4.541   9.104  0.00  0.00    -0.297 N 
ATOM     20  H   GLU A   8       7.535   5.314   9.580  0.00  0.00    +0.150 HD
ATOM     21  O   GLY A   7       5.063   3.555   8.693  0.00  0.00    -0.273 OA
BRANCH  19  22
ATOM     22  CA  GLU A   8       7.785   3.564   8.293  0.00  0.00    +0.149 C 
BRANCH  22  23
ATOM     23  C   GLU A   8       7.843   2.159   8.904  0.00  0.00    +0.241 C 
ATOM     24  O   GLU A   8       8.059   2.010  10.107  0.00  0.00    -0.273 OA
ATOM     25  N   MET A   9       7.669   1.121   8.074  0.00  0.00    -0.297 N 
ATOM     26  H   MET A   9       7.297   1.293   7.118  0.00  0.00    +0.150 HD
BRANCH  25  27
ATOM     27  CA  MET A   9       7.990  -0.250   8.479  0.00  0.00    +0.149 C 
BRANCH  27  28
ATOM     28  C   MET A   9       9.300  -0.303   9.239  0.00  0.00    +0.241 C 
ATOM     29  O   MET A   9       9.416  -0.982  10.253  0.00  0.00    -0.273 OA
ATOM     30  N   PHE A  10      10.279   0.444   8.748  0.00  0.00    -0.298 N 
ATOM     31  H   PHE A  10      10.085   1.029   7.910  0.00  0.00    +0.150 HD
BRANCH  30  32
ATOM     32  CA  PHE A  10      11.603   0.482   9.325  0.00  0.00    +0.141 C 
BRANCH  32  33
ATOM     33  C   PHE A  10      11.545   0.736  10.833  0.00  0.00    +0.227 C 
ATOM     34  O   PHE A  10      12.161   0.017  11.592  0.00  0.00    -0.286 OA
ENDBRANCH  32  33
BRANCH  32  35
ATOM     35  CB  PHE A  10      12.443   1.576   8.644  0.00  0.00    +0.054 C 
BRANCH  35  36
ATOM     36  CG  PHE A  10      13.688   1.946   9.406  0.00  0.00    -0.020 A 
ATOM     37  CD2 PHE A  10      13.665   2.980  10.328  0.00  0.00    -0.004 A 
ATOM     38  CE2 PHE A  10      14.786   3.303  11.063  0.00  0.00    -0.000 A 
ATOM     39  CZ  PHE A  10      15.964   2.579  10.854  0.00  0.00    -0.000 A 
ATOM     40  CE1 PHE A  10      15.985   1.564   9.937  0.00  0.00    -0.000 A 
ATOM     41  CD1 PHE A  10      14.864   1.252   9.215  0.00  0.00    -0.004 A 
ENDBRANCH  35  36
ENDBRANCH  32  35
ENDBRANCH  30  32
ENDBRANCH  27  28
BRANCH  27  42
ATOM     42  CB  MET A   9       8.049  -1.191   7.281  0.00  0.00    +0.041 C 
BRANCH  42  43
ATOM     43  CG  MET A   9       8.187  -2.666   7.718  0.00  0.00    +0.060 C 
BRANCH  43  44
ATOM     44  SD  MET A   9       8.634  -3.753   6.410  0.00  0.00    -0.139 S 
ATOM     45  CE  MET A   9       7.114  -3.746   5.537  0.00  0.00    +0.069 C 
ENDBRANCH  43  44
ENDBRANCH  42  43
ENDBRANCH  27  42
ENDBRANCH  25  27
ENDBRANCH  22  23
BRANCH  22  46
ATOM     46  CB  GLU A   8       9.193   4.101   8.062  0.00  0.00    +0.041 C 
BRANCH  46  47
ATOM     47  CG  GLU A   8       9.226   5.382   7.246  0.00  0.00    +0.116 C 
BRANCH  47  48
ATOM     48  CD  GLU A   8      10.525   6.140   7.433  0.00  0.00    +0.365 C 
ATOM     49  OE2 GLU A   8      11.470   5.526   7.997  0.00  0.00    -0.246 OA
ATOM     50  OE1 GLU A   8      10.598   7.335   7.060  0.00  0.00    -0.246 OA
ENDBRANCH  47  48
ENDBRANCH  46  47
ENDBRANCH  22  46
ENDBRANCH  19  22
ENDBRANCH  17  18
ENDBRANCH  15  17
ENDBRANCH  12  13
ENDBRANCH  10  12
ENDBRANCH   3   8
BRANCH   1  51
ATOM     51  CA  VAL A   4       0.351   7.502   5.609  0.00  0.00    +0.149 C 
BRANCH  51  53
ATOM     52  C   TYR A   3      -0.653   9.624   4.854  0.00  0.00    +0.241 C 
ATOM     53  N   VAL A   4       0.433   8.886   5.136  0.00  0.00    -0.297 N 
ATOM     54  H   VAL A   4       1.372   9.315   5.013  0.00  0.00    +0.150 HD
ATOM     55  O   TYR A   3      -1.797   9.197   4.962  0.00  0.00    -0.273 OA
BRANCH  52  56
ATOM     56  CA  TYR A   3      -0.401  11.019   4.314  0.00  0.00    +0.153 C 
BRANCH  56  58
ATOM     57  C   GLU A   2      -0.588  10.655   1.893  0.00  0.00    +0.241 C 
ATOM     58  N   TYR A   3      -1.103  11.127   3.036  0.00  0.00    -0.297 N 
ATOM     59  H   TYR A   3      -2.036  11.587   3.014  0.00  0.00    +0.150 HD
ATOM     60  O   GLU A   2       0.550  10.159   1.788  0.00  0.00    -0.273 OA
BRANCH  57  61
ATOM     61  CA  GLU A   2      -1.498  10.723   0.680  0.00  0.00    +0.149 C 
BRANCH  61  64
ATOM     62  C   MET A   1      -0.117  12.303  -0.477  0.00  0.00    +0.238 C 
ATOM     63  O   MET A   1      -0.124  13.077   0.501  0.00  0.00    -0.274 OA
ATOM     64  N   GLU A   2      -0.758  11.156  -0.482  0.00  0.00    -0.297 N 
ATOM     65  H   GLU A   2      -0.732  10.555  -1.330  0.00  0.00    +0.150 HD
BRANCH  62  66
ATOM     66  CA  MET A   1       0.678  12.604  -1.726  0.00  0.00    +0.146 C 
BRANCH  66  67
ATOM     67  N   MET A   1       1.267  13.925  -1.699  0.00  0.00    -0.238 NA
ATOM     68  H   MET A   1       1.929  14.176  -0.937  0.00  0.00    +0.142 HD
ENDBRANCH  66  67
BRANCH  66  69
ATOM     69  CB  MET A   1       1.793  11.571  -1.876  0.00  0.00    +0.038 C 
BRANCH  69  70
ATOM     70  CG  MET A   1       2.716  11.447  -0.707  0.00  0.00    +0.060 C 
BRANCH  70  71
ATOM     71  SD  MET A   1       4.400  10.788  -1.199  0.00  0.00    -0.139 S 
ATOM     72  CE  MET A   1       5.153  12.111  -1.816  0.00  0.00    +0.069 C 
ENDBRANCH  70  71
ENDBRANCH  69  70
ENDBRANCH  66  69
ENDBRANCH  62  66
ENDBRANCH  61  64
BRANCH  61  73
ATOM     73  CB  GLU A   2      -2.119   9.365   0.432  0.00  0.00    +0.041 C 
BRANCH  73  74
ATOM     74  CG  GLU A   2      -2.821   8.762   1.651  0.00  0.00    +0.116 C 
BRANCH  74  75
ATOM     75  CD  GLU A   2      -3.628   7.504   1.295  0.00  0.00    +0.365 C 
ATOM     76  OE2 GLU A   2      -3.443   6.432   1.961  0.00  0.00    -0.246 OA
ATOM     77  OE1 GLU A   2      -4.439   7.605   0.321  0.00  0.00    -0.246 OA
ENDBRANCH  74  75
ENDBRANCH  73  74
ENDBRANCH  61  73
ENDBRANCH  57  61
ENDBRANCH  56  58
BRANCH  56  78
ATOM     78  CB  TYR A   3      -0.844  12.087   5.303  0.00  0.00    +0.055 C 
BRANCH  78  79
ATOM     79  CG  TYR A   3      -0.265  11.938   6.690  0.00  0.00    -0.020 A 
ATOM     80  CD2 TYR A   3      -1.076  12.033   7.823  0.00  0.00    -0.001 A 
ATOM     81  CE2 TYR A   3      -0.522  11.883   9.129  0.00  0.00    +0.036 A 
ATOM     82  CZ  TYR A   3       0.821  11.643   9.264  0.00  0.00    +0.134 A 
ATOM     83  CE1 TYR A   3       1.628  11.524   8.145  0.00  0.00    +0.036 A 
ATOM     84  CD1 TYR A   3       1.093  11.687   6.877  0.00  0.00    -0.001 A 
BRANCH  82  85
ATOM     85  OH  TYR A   3       1.396  11.491  10.493  0.00  0.00    -0.506 OA
ATOM     86  HH  TYR A   3       1.258  12.314  11.025  0.00  0.00    +0.292 HD
ENDBRANCH  82  85
ENDBRANCH  78  79
ENDBRANCH  56  78
ENDBRANCH  52  56
ENDBRANCH  51  53
BRANCH  51  87
ATOM     87  CB  VAL A   4       1.179   6.526   4.721  0.00  0.00    +0.027 C 
ATOM     88  CG2 VAL A   4       0.873   5.110   5.076  0.00  0.00    +0.002 C 
ATOM     89  CG1 VAL A   4       0.879   6.747   3.235  0.00  0.00    +0.002 C 
ENDBRANCH  51  87
ENDBRANCH   1  51
TORSDOF 37
REMARK  Name = ../refined-set-2016/1xh5/1xh5_pocket.pdb
REMARK  251 active torsions:
REMARK  status: ('A' for Active; 'I' for Inactive)
REMARK    1  A    between atoms: _1  and  _3
REMARK    2  A    between atoms: _3  and  _4
REMARK    3  A    between atoms: _3  and  _6
REMARK    4  A    between atoms: _6  and  _7
REMARK    5  A    between atoms: _10  and  _12
REMARK    6  A    between atoms: _12  and  _13
REMARK    7  A    between atoms: _12  and  _15
REMARK    8  A    between atoms: _15  and  _16
REMARK    9  A    between atoms: _19  and  _21
REMARK   10  A    between atoms: _21  and  _22
REMARK   11  A    between atoms: _24  and  _26
REMARK   12  A    between atoms: _26  and  _27
REMARK   13  A    between atoms: _26  and  _29
REMARK   14  A    between atoms: _29  and  _30
REMARK   15  A    between atoms: _33  and  _35
REMARK   16  A    between atoms: _35  and  _36
REMARK   17  A    between atoms: _38  and  _40
REMARK   18  A    between atoms: _40  and  _41
REMARK   19  A    between atoms: _40  and  _43
REMARK   20  A    between atoms: _43  and  _44
REMARK   21  A    between atoms: _46  and  _48
REMARK   22  A    between atoms: _48  and  _49
REMARK   23  A    between atoms: _48  and  _51
REMARK   24  A    between atoms: _51  and  _52
REMARK   25  A    between atoms: _58  and  _60
REMARK   26  A    between atoms: _60  and  _61
REMARK   27  A    between atoms: _63  and  _65
REMARK   28  A    between atoms: _65  and  _66
REMARK   29  A    between atoms: _65  and  _68
REMARK   30  A    between atoms: _68  and  _69
REMARK   31  A    between atoms: _69  and  _70
REMARK   32  A    between atoms: _70  and  _71
REMARK   33  A    between atoms: _80  and  _82
REMARK   34  A    between atoms: _82  and  _83
REMARK   35  A    between atoms: _82  and  _85
REMARK   36  A    between atoms: _88  and  _90
REMARK   37  A    between atoms: _90  and  _91
REMARK   38  A    between atoms: _90  and  _93
REMARK   39  A    between atoms: _93  and  _94
REMARK   40  A    between atoms: _94  and  _95
REMARK   41  A    between atoms: _97  and  _99
REMARK   42  A    between atoms: _99  and  _100
REMARK   43  A    between atoms: _99  and  _102
REMARK   44  A    between atoms: _102  and  _103
REMARK   45  A    between atoms: _106  and  _108
REMARK   46  A    between atoms: _108  and  _109
REMARK   47  A    between atoms: _108  and  _111
REMARK   48  A    between atoms: _111  and  _112
REMARK   49  A    between atoms: _117  and  _118
REMARK   50  A    between atoms: _120  and  _122
REMARK   51  A    between atoms: _122  and  _123
REMARK   52  A    between atoms: _126  and  _128
REMARK   53  A    between atoms: _128  and  _129
REMARK   54  A    between atoms: _128  and  _131
REMARK   55  A    between atoms: _131  and  _132
REMARK   56  A    between atoms: _132  and  _133
REMARK   57  A    between atoms: _135  and  _137
REMARK   58  A    between atoms: _137  and  _138
REMARK   59  A    between atoms: _137  and  _140
REMARK   60  A    between atoms: _140  and  _141
REMARK   61  A    between atoms: _141  and  _142
REMARK   62  A    between atoms: _142  and  _143
REMARK   63  A    between atoms: _143  and  _144
REMARK   64  A    between atoms: _148  and  _150
REMARK   65  A    between atoms: _150  and  _151
REMARK   66  A    between atoms: _150  and  _153
REMARK   67  A    between atoms: _153  and  _154
REMARK   68  A    between atoms: _157  and  _159
REMARK   69  A    between atoms: _159  and  _160
REMARK   70  A    between atoms: _159  and  _162
REMARK   71  A    between atoms: _162  and  _163
REMARK   72  A    between atoms: _166  and  _168
REMARK   73  A    between atoms: _168  and  _169
REMARK   74  A    between atoms: _168  and  _171
REMARK   75  A    between atoms: _171  and  _172
REMARK   76  A    between atoms: _175  and  _177
REMARK   77  A    between atoms: _177  and  _178
REMARK   78  A    between atoms: _177  and  _180
REMARK   79  A    between atoms: _180  and  _181
REMARK   80  A    between atoms: _181  and  _182
REMARK   81  A    between atoms: _182  and  _183
REMARK   82  A    between atoms: _183  and  _184
REMARK   83  A    between atoms: _188  and  _190
REMARK   84  A    between atoms: _190  and  _191
REMARK   85  A    between atoms: _190  and  _193
REMARK   86  A    between atoms: _196  and  _198
REMARK   87  A    between atoms: _198  and  _199
REMARK   88  A    between atoms: _198  and  _201
REMARK   89  A    between atoms: _201  and  _202
REMARK   90  A    between atoms: _205  and  _207
REMARK   91  A    between atoms: _207  and  _208
REMARK   92  A    between atoms: _207  and  _210
REMARK   93  A    between atoms: _210  and  _211
REMARK   94  A    between atoms: _211  and  _212
REMARK   95  A    between atoms: _212  and  _213
REMARK   96  A    between atoms: _213  and  _214
REMARK   97  A    between atoms: _218  and  _220
REMARK   98  A    between atoms: _220  and  _221
REMARK   99  A    between atoms: _220  and  _223
REMARK  100  A    between atoms: _223  and  _224
REMARK  101  A    between atoms: _224  and  _225
REMARK  102  A    between atoms: _230  and  _232
REMARK  103  A    between atoms: _232  and  _233
REMARK  104  A    between atoms: _232  and  _235
REMARK  105  A    between atoms: _235  and  _236
REMARK  106  A    between atoms: _241  and  _243
REMARK  107  A    between atoms: _243  and  _244
REMARK  108  A    between atoms: _243  and  _246
REMARK  109  A    between atoms: _246  and  _247
REMARK  110  A    between atoms: _250  and  _252
REMARK  111  A    between atoms: _252  and  _253
REMARK  112  A    between atoms: _252  and  _255
REMARK  113  A    between atoms: _255  and  _256
REMARK  114  A    between atoms: _256  and  _257
REMARK  115  A    between atoms: _260  and  _262
REMARK  116  A    between atoms: _262  and  _263
REMARK  117  A    between atoms: _262  and  _265
REMARK  118  A    between atoms: _265  and  _266
REMARK  119  A    between atoms: _269  and  _271
REMARK  120  A    between atoms: _271  and  _272
REMARK  121  A    between atoms: _271  and  _274
REMARK  122  A    between atoms: _277  and  _279
REMARK  123  A    between atoms: _279  and  _280
REMARK  124  A    between atoms: _279  and  _282
REMARK  125  A    between atoms: _282  and  _283
REMARK  126  A    between atoms: _283  and  _284
REMARK  127  A    between atoms: _284  and  _285
REMARK  128  A    between atoms: _285  and  _286
REMARK  129  A    between atoms: _290  and  _292
REMARK  130  A    between atoms: _292  and  _293
REMARK  131  A    between atoms: _292  and  _295
REMARK  132  A    between atoms: _295  and  _296
REMARK  133  A    between atoms: _296  and  _297
REMARK  134  A    between atoms: _299  and  _301
REMARK  135  A    between atoms: _301  and  _302
REMARK  136  A    between atoms: _301  and  _304
REMARK  137  A    between atoms: _304  and  _305
REMARK  138  A    between atoms: _305  and  _306
REMARK  139  A    between atoms: _308  and  _310
REMARK  140  A    between atoms: _310  and  _311
REMARK  141  A    between atoms: _310  and  _313
REMARK  142  A    between atoms: _313  and  _314
REMARK  143  A    between atoms: _314  and  _315
REMARK  144  A    between atoms: _318  and  _320
REMARK  145  A    between atoms: _320  and  _321
REMARK  146  A    between atoms: _320  and  _323
REMARK  147  A    between atoms: _323  and  _324
REMARK  148  A    between atoms: _329  and  _330
REMARK  149  A    between atoms: _332  and  _334
REMARK  150  A    between atoms: _334  and  _335
REMARK  151  A    between atoms: _334  and  _337
REMARK  152  A    between atoms: _341  and  _342
REMARK  153  A    between atoms: _347  and  _349
REMARK  154  A    between atoms: _349  and  _350
REMARK  155  A    between atoms: _352  and  _354
REMARK  156  A    between atoms: _354  and  _355
REMARK  157  A    between atoms: _357  and  _359
REMARK  158  A    between atoms: _359  and  _360
REMARK  159  A    between atoms: _359  and  _362
REMARK  160  A    between atoms: _362  and  _363
REMARK  161  A    between atoms: _363  and  _364
REMARK  162  A    between atoms: _367  and  _369
REMARK  163  A    between atoms: _369  and  _370
REMARK  164  A    between atoms: _369  and  _372
REMARK  165  A    between atoms: _372  and  _373
REMARK  166  A    between atoms: _373  and  _374
REMARK  167  A    between atoms: _376  and  _378
REMARK  168  A    between atoms: _378  and  _379
REMARK  169  A    between atoms: _378  and  _381
REMARK  170  A    between atoms: _381  and  _382
REMARK  171  A    between atoms: _388  and  _390
REMARK  172  A    between atoms: _390  and  _391
REMARK  173  A    between atoms: _390  and  _393
REMARK  174  A    between atoms: _393  and  _394
REMARK  175  A    between atoms: _399  and  _400
REMARK  176  A    between atoms: _402  and  _404
REMARK  177  A    between atoms: _404  and  _405
REMARK  178  A    between atoms: _404  and  _407
REMARK  179  A    between atoms: _407  and  _408
REMARK  180  A    between atoms: _411  and  _413
REMARK  181  A    between atoms: _413  and  _414
REMARK  182  A    between atoms: _413  and  _416
REMARK  183  A    between atoms: _416  and  _417
REMARK  184  A    between atoms: _417  and  _418
REMARK  185  A    between atoms: _418  and  _419
REMARK  186  A    between atoms: _419  and  _420
REMARK  187  A    between atoms: _425  and  _426
REMARK  188  A    between atoms: _431  and  _433
REMARK  189  A    between atoms: _433  and  _434
REMARK  190  A    between atoms: _433  and  _436
REMARK  191  A    between atoms: _436  and  _437
REMARK  192  A    between atoms: _437  and  _438
REMARK  193  A    between atoms: _441  and  _443
REMARK  194  A    between atoms: _443  and  _444
REMARK  195  A    between atoms: _443  and  _446
REMARK  196  A    between atoms: _446  and  _447
REMARK  197  A    between atoms: _452  and  _454
REMARK  198  A    between atoms: _454  and  _455
REMARK  199  A    between atoms: _454  and  _457
REMARK  200  A    between atoms: _457  and  _458
REMARK  201  A    between atoms: _461  and  _463
REMARK  202  A    between atoms: _463  and  _464
REMARK  203  A    between atoms: _463  and  _466
REMARK  204  A    between atoms: _466  and  _467
REMARK  205  A    between atoms: _470  and  _472
REMARK  206  A    between atoms: _472  and  _473
REMARK  207  A    between atoms: _472  and  _475
REMARK  208  A    between atoms: _475  and  _476
REMARK  209  A    between atoms: _479  and  _481
REMARK  210  A    between atoms: _481  and  _482
REMARK  211  A    between atoms: _481  and  _484
REMARK  212  A    between atoms: _484  and  _485
REMARK  213  A    between atoms: _485  and  _486
REMARK  214  A    between atoms: _491  and  _493
REMARK  215  A    between atoms: _493  and  _494
REMARK  216  A    between atoms: _493  and  _496
REMARK  217  A    between atoms: _499  and  _501
REMARK  218  A    between atoms: _501  and  _502
REMARK  219  A    between atoms: _501  and  _504
REMARK  220  A    between atoms: _504  and  _505
REMARK  221  A    between atoms: _508  and  _510
REMARK  222  A    between atoms: _510  and  _511
REMARK  223  A    between atoms: _510  and  _513
REMARK  224  A    between atoms: _513  and  _514
REMARK  225  A    between atoms: _517  and  _519
REMARK  226  A    between atoms: _519  and  _520
REMARK  227  A    between atoms: _519  and  _522
REMARK  228  A    between atoms: _522  and  _523
REMARK  229  A    between atoms: _529  and  _531
REMARK  230  A    between atoms: _531  and  _532
REMARK  231  A    between atoms: _534  and  _536
REMARK  232  A    between atoms: _536  and  _537
REMARK  233  A    between atoms: _536  and  _539
REMARK  234  A    between atoms: _539  and  _540
REMARK  235  A    between atoms: _546  and  _548
REMARK  236  A    between atoms: _548  and  _549
REMARK  237  A    between atoms: _552  and  _554
REMARK  238  A    between atoms: _554  and  _555
REMARK  239  A    between atoms: _557  and  _559
REMARK  240  A    between atoms: _559  and  _560
REMARK  241  A    between atoms: _559  and  _562
REMARK  242  A    between atoms: _562  and  _563
REMARK  243  A    between atoms: _566  and  _568
REMARK  244  A    between atoms: _568  and  _569
REMARK  245  A    between atoms: _568  and  _571
REMARK  246  A    between atoms: _571  and  _572
REMARK  247  A    between atoms: _578  and  _580
REMARK  248  A    between atoms: _580  and  _581
REMARK  249  A    between atoms: _580  and  _583
REMARK  250  A    between atoms: _583  and  _584
REMARK  251  A    between atoms: _589  and  _590
REMARK                            x       y       z     vdW  Elec       q    Type
REMARK                         _______ _______ _______ _____ _____    ______ ____
ROOT
ATOM      1  CG  TYR A   1      10.456   0.427  -6.158  0.00  0.00    -0.020 A 
ATOM      2  CD2 TYR A   1      10.962  -0.105  -4.965  0.00  0.00    -0.001 A 
ATOM      3  CE2 TYR A   1      10.974   0.656  -3.794  0.00  0.00    +0.036 A 
ATOM      4  CZ  TYR A   1      10.495   1.930  -3.808  0.00  0.00    +0.134 A 
ATOM      5  CE1 TYR A   1       9.975   2.487  -4.981  0.00  0.00    +0.036 A 
ATOM      6  CD1 TYR A   1       9.994   1.750  -6.141  0.00  0.00    -0.001 A 
ENDROOT
BRANCH   4   7
ATOM      7  OH  TYR A   1      10.538   2.675  -2.666  0.00  0.00    -0.506 OA
ATOM      8  HH  TYR A   1      10.154   3.570  -2.843  0.00  0.00    +0.292 HD
ENDBRANCH   4   7
BRANCH   1   9
ATOM      9  CB  TYR A   1      10.478  -0.369  -7.436  0.00  0.00    +0.051 C 
BRANCH   9  10
ATOM     10  CA  TYR A   1      11.345   0.274  -8.525  0.00  0.00    +0.137 C 
BRANCH  10  11
ATOM     11  N   TYR A   1      11.487  -0.619  -9.678  0.00  0.00    -0.239 NA
ATOM     12  H   TYR A   1      11.555  -1.645  -9.522  0.00  0.00    +0.142 HD
ENDBRANCH  10  11
BRANCH  10  13
ATOM     13  C   TYR A   1      12.732   0.647  -8.000  0.00  0.00    +0.224 C 
ATOM     14  O   TYR A   1      12.997   1.805  -7.752  0.00  0.00    -0.287 OA
ENDBRANCH  10  13
ENDBRANCH   9  10
ENDBRANCH   1   9
TORSDOF 5
REMARK  Name = ../refined-set-2016/1xh5/1xh5_pocket.pdb
REMARK  251 active torsions:
REMARK  status: ('A' for Active; 'I' for Inactive)
REMARK    1  A    between atoms: _1  and  _3
REMARK    2  A    between atoms: _3  and  _4
REMARK    3  A    between atoms: _3  and  _6
REMARK    4  A    between atoms: _6  and  _7
REMARK    5  A    between atoms: _10  and  _12
REMARK    6  A    between atoms: _12  and  _13
REMARK    7  A    between atoms: _12  and  _15
REMARK    8  A    between atoms: _15  and  _16
REMARK    9  A    between atoms: _19  and  _21
REMARK   10  A    between atoms: _21  and  _22
REMARK   11  A    between atoms: _24  and  _26
REMARK   12  A    between atoms: _26  and  _27
REMARK   13  A    between atoms: _26  and  _29
REMARK   14  A    between atoms: _29  and  _30
REMARK   15  A    between atoms: _33  and  _35
REMARK   16  A    between atoms: _35  and  _36
REMARK   17  A    between atoms: _38  and  _40
REMARK   18  A    between atoms: _40  and  _41
REMARK   19  A    between atoms: _40  and  _43
REMARK   20  A    between atoms: _43  and  _44
REMARK   21  A    between atoms: _46  and  _48
REMARK   22  A    between atoms: _48  and  _49
REMARK   23  A    between atoms: _48  and  _51
REMARK   24  A    between atoms: _51  and  _52
REMARK   25  A    between atoms: _58  and  _60
REMARK   26  A    between atoms: _60  and  _61
REMARK   27  A    between atoms: _63  and  _65
REMARK   28  A    between atoms: _65  and  _66
REMARK   29  A    between atoms: _65  and  _68
REMARK   30  A    between atoms: _68  and  _69
REMARK   31  A    between atoms: _69  and  _70
REMARK   32  A    between atoms: _70  and  _71
REMARK   33  A    between atoms: _80  and  _82
REMARK   34  A    between atoms: _82  and  _83
REMARK   35  A    between atoms: _82  and  _85
REMARK   36  A    between atoms: _88  and  _90
REMARK   37  A    between atoms: _90  and  _91
REMARK   38  A    between atoms: _90  and  _93
REMARK   39  A    between atoms: _93  and  _94
REMARK   40  A    between atoms: _94  and  _95
REMARK   41  A    between atoms: _97  and  _99
REMARK   42  A    between atoms: _99  and  _100
REMARK   43  A    between atoms: _99  and  _102
REMARK   44  A    between atoms: _102  and  _103
REMARK   45  A    between atoms: _106  and  _108
REMARK   46  A    between atoms: _108  and  _109
REMARK   47  A    between atoms: _108  and  _111
REMARK   48  A    between atoms: _111  and  _112
REMARK   49  A    between atoms: _117  and  _118
REMARK   50  A    between atoms: _120  and  _122
REMARK   51  A    between atoms: _122  and  _123
REMARK   52  A    between atoms: _126  and  _128
REMARK   53  A    between atoms: _128  and  _129
REMARK   54  A    between atoms: _128  and  _131
REMARK   55  A    between atoms: _131  and  _132
REMARK   56  A    between atoms: _132  and  _133
REMARK   57  A    between atoms: _135  and  _137
REMARK   58  A    between atoms: _137  and  _138
REMARK   59  A    between atoms: _137  and  _140
REMARK   60  A    between atoms: _140  and  _141
REMARK   61  A    between atoms: _141  and  _142
REMARK   62  A    between atoms: _142  and  _143
REMARK   63  A    between atoms: _143  and  _144
REMARK   64  A    between atoms: _148  and  _150
REMARK   65  A    between atoms: _150  and  _151
REMARK   66  A    between atoms: _150  and  _153
REMARK   67  A    between atoms: _153  and  _154
REMARK   68  A    between atoms: _157  and  _159
REMARK   69  A    between atoms: _159  and  _160
REMARK   70  A    between atoms: _159  and  _162
REMARK   71  A    between atoms: _162  and  _163
REMARK   72  A    between atoms: _166  and  _168
REMARK   73  A    between atoms: _168  and  _169
REMARK   74  A    between atoms: _168  and  _171
REMARK   75  A    between atoms: _171  and  _172
REMARK   76  A    between atoms: _175  and  _177
REMARK   77  A    between atoms: _177  and  _178
REMARK   78  A    between atoms: _177  and  _180
REMARK   79  A    between atoms: _180  and  _181
REMARK   80  A    between atoms: _181  and  _182
REMARK   81  A    between atoms: _182  and  _183
REMARK   82  A    between atoms: _183  and  _184
REMARK   83  A    between atoms: _188  and  _190
REMARK   84  A    between atoms: _190  and  _191
REMARK   85  A    between atoms: _190  and  _193
REMARK   86  A    between atoms: _196  and  _198
REMARK   87  A    between atoms: _198  and  _199
REMARK   88  A    between atoms: _198  and  _201
REMARK   89  A    between atoms: _201  and  _202
REMARK   90  A    between atoms: _205  and  _207
REMARK   91  A    between atoms: _207  and  _208
REMARK   92  A    between atoms: _207  and  _210
REMARK   93  A    between atoms: _210  and  _211
REMARK   94  A    between atoms: _211  and  _212
REMARK   95  A    between atoms: _212  and  _213
REMARK   96  A    between atoms: _213  and  _214
REMARK   97  A    between atoms: _218  and  _220
REMARK   98  A    between atoms: _220  and  _221
REMARK   99  A    between atoms: _220  and  _223
REMARK  100  A    between atoms: _223  and  _224
REMARK  101  A    between atoms: _224  and  _225
REMARK  102  A    between atoms: _230  and  _232
REMARK  103  A    between atoms: _232  and  _233
REMARK  104  A    between atoms: _232  and  _235
REMARK  105  A    between atoms: _235  and  _236
REMARK  106  A    between atoms: _241  and  _243
REMARK  107  A    between atoms: _243  and  _244
REMARK  108  A    between atoms: _243  and  _246
REMARK  109  A    between atoms: _246  and  _247
REMARK  110  A    between atoms: _250  and  _252
REMARK  111  A    between atoms: _252  and  _253
REMARK  112  A    between atoms: _252  and  _255
REMARK  113  A    between atoms: _255  and  _256
REMARK  114  A    between atoms: _256  and  _257
REMARK  115  A    between atoms: _260  and  _262
REMARK  116  A    between atoms: _262  and  _263
REMARK  117  A    between atoms: _262  and  _265
REMARK  118  A    between atoms: _265  and  _266
REMARK  119  A    between atoms: _269  and  _271
REMARK  120  A    between atoms: _271  and  _272
REMARK  121  A    between atoms: _271  and  _274
REMARK  122  A    between atoms: _277  and  _279
REMARK  123  A    between atoms: _279  and  _280
REMARK  124  A    between atoms: _279  and  _282
REMARK  125  A    between atoms: _282  and  _283
REMARK  126  A    between atoms: _283  and  _284
REMARK  127  A    between atoms: _284  and  _285
REMARK  128  A    between atoms: _285  and  _286
REMARK  129  A    between atoms: _290  and  _292
REMARK  130  A    between atoms: _292  and  _293
REMARK  131  A    between atoms: _292  and  _295
REMARK  132  A    between atoms: _295  and  _296
REMARK  133  A    between atoms: _296  and  _297
REMARK  134  A    between atoms: _299  and  _301
REMARK  135  A    between atoms: _301  and  _302
REMARK  136  A    between atoms: _301  and  _304
REMARK  137  A    between atoms: _304  and  _305
REMARK  138  A    between atoms: _305  and  _306
REMARK  139  A    between atoms: _308  and  _310
REMARK  140  A    between atoms: _310  and  _311
REMARK  141  A    between atoms: _310  and  _313
REMARK  142  A    between atoms: _313  and  _314
REMARK  143  A    between atoms: _314  and  _315
REMARK  144  A    between atoms: _318  and  _320
REMARK  145  A    between atoms: _320  and  _321
REMARK  146  A    between atoms: _320  and  _323
REMARK  147  A    between atoms: _323  and  _324
REMARK  148  A    between atoms: _329  and  _330
REMARK  149  A    between atoms: _332  and  _334
REMARK  150  A    between atoms: _334  and  _335
REMARK  151  A    between atoms: _334  and  _337
REMARK  152  A    between atoms: _341  and  _342
REMARK  153  A    between atoms: _347  and  _349
REMARK  154  A    between atoms: _349  and  _350
REMARK  155  A    between atoms: _352  and  _354
REMARK  156  A    between atoms: _354  and  _355
REMARK  157  A    between atoms: _357  and  _359
REMARK  158  A    between atoms: _359  and  _360
REMARK  159  A    between atoms: _359  and  _362
REMARK  160  A    between atoms: _362  and  _363
REMARK  161  A    between atoms: _363  and  _364
REMARK  162  A    between atoms: _367  and  _369
REMARK  163  A    between atoms: _369  and  _370
REMARK  164  A    between atoms: _369  and  _372
REMARK  165  A    between atoms: _372  and  _373
REMARK  166  A    between atoms: _373  and  _374
REMARK  167  A    between atoms: _376  and  _378
REMARK  168  A    between atoms: _378  and  _379
REMARK  169  A    between atoms: _378  and  _381
REMARK  170  A    between atoms: _381  and  _382
REMARK  171  A    between atoms: _388  and  _390
REMARK  172  A    between atoms: _390  and  _391
REMARK  173  A    between atoms: _390  and  _393
REMARK  174  A    between atoms: _393  and  _394
REMARK  175  A    between atoms: _399  and  _400
REMARK  176  A    between atoms: _402  and  _404
REMARK  177  A    between atoms: _404  and  _405
REMARK  178  A    between atoms: _404  and  _407
REMARK  179  A    between atoms: _407  and  _408
REMARK  180  A    between atoms: _411  and  _413
REMARK  181  A    between atoms: _413  and  _414
REMARK  182  A    between atoms: _413  and  _416
REMARK  183  A    between atoms: _416  and  _417
REMARK  184  A    between atoms: _417  and  _418
REMARK  185  A    between atoms: _418  and  _419
REMARK  186  A    between atoms: _419  and  _420
REMARK  187  A    between atoms: _425  and  _426
REMARK  188  A    between atoms: _431  and  _433
REMARK  189  A    between atoms: _433  and  _434
REMARK  190  A    between atoms: _433  and  _436
REMARK  191  A    between atoms: _436  and  _437
REMARK  192  A    between atoms: _437  and  _438
REMARK  193  A    between atoms: _441  and  _443
REMARK  194  A    between atoms: _443  and  _444
REMARK  195  A    between atoms: _443  and  _446
REMARK  196  A    between atoms: _446  and  _447
REMARK  197  A    between atoms: _452  and  _454
REMARK  198  A    between atoms: _454  and  _455
REMARK  199  A    between atoms: _454  and  _457
REMARK  200  A    between atoms: _457  and  _458
REMARK  201  A    between atoms: _461  and  _463
REMARK  202  A    between atoms: _463  and  _464
REMARK  203  A    between atoms: _463  and  _466
REMARK  204  A    between atoms: _466  and  _467
REMARK  205  A    between atoms: _470  and  _472
REMARK  206  A    between atoms: _472  and  _473
REMARK  207  A    between atoms: _472  and  _475
REMARK  208  A    between atoms: _475  and  _476
REMARK  209  A    between atoms: _479  and  _481
REMARK  210  A    between atoms: _481  and  _482
REMARK  211  A    between atoms: _481  and  _484
REMARK  212  A    between atoms: _484  and  _485
REMARK  213  A    between atoms: _485  and  _486
REMARK  214  A    between atoms: _491  and  _493
REMARK  215  A    between atoms: _493  and  _494
REMARK  216  A    between atoms: _493  and  _496
REMARK  217  A    between atoms: _499  and  _501
REMARK  218  A    between atoms: _501  and  _502
REMARK  219  A    between atoms: _501  and  _504
REMARK  220  A    between atoms: _504  and  _505
REMARK  221  A    between atoms: _508  and  _510
REMARK  222  A    between atoms: _510  and  _511
REMARK  223  A    between atoms: _510  and  _513
REMARK  224  A    between atoms: _513  and  _514
REMARK  225  A    between atoms: _517  and  _519
REMARK  226  A    between atoms: _519  and  _520
REMARK  227  A    between atoms: _519  and  _522
REMARK  228  A    between atoms: _522  and  _523
REMARK  229  A    between atoms: _529  and  _531
REMARK  230  A    between atoms: _531  and  _532
REMARK  231  A    between atoms: _534  and  _536
REMARK  232  A    between atoms: _536  and  _537
REMARK  233  A    between atoms: _536  and  _539
REMARK  234  A    between atoms: _539  and  _540
REMARK  235  A    between atoms: _546  and  _548
REMARK  236  A    between atoms: _548  and  _549
REMARK  237  A    between atoms: _552  and  _554
REMARK  238  A    between atoms: _554  and  _555
REMARK  239  A    between atoms: _557  and  _559
REMARK  240  A    between atoms: _559  and  _560
REMARK  241  A    between atoms: _559  and  _562
REMARK  242  A    between atoms: _562  and  _563
REMARK  243  A    between atoms: _566  and  _568
REMARK  244  A    between atoms: _568  and  _569
REMARK  245  A    between atoms: _568  and  _571
REMARK  246  A    between atoms: _571  and  _572
REMARK  247  A    between atoms: _578  and  _580
REMARK  248  A    between atoms: _580  and  _581
REMARK  249  A    between atoms: _580  and  _583
REMARK  250  A    between atoms: _583  and  _584
REMARK  251  A    between atoms: _589  and  _590
REMARK                            x       y       z     vdW  Elec       q    Type
REMARK                         _______ _______ _______ _____ _____    ______ ____
ROOT
ATOM      1  CA  ASP A   1      14.907   0.860  -3.809  0.00  0.00    +0.144 C 
ENDROOT
BRANCH   1   2
ATOM      2  N   ASP A   1      14.485   0.462  -5.149  0.00  0.00    -0.239 NA
ATOM      3  H   ASP A   1      13.485   0.259  -5.352  0.00  0.00    +0.142 HD
ENDBRANCH   1   2
BRANCH   1   4
ATOM      4  C   ASP A   1      14.015   0.246  -2.733  0.00  0.00    +0.225 C 
ATOM      5  O   ASP A   1      13.633   0.905  -1.783  0.00  0.00    -0.287 OA
ENDBRANCH   1   4
BRANCH   1   6
ATOM      6  CB  ASP A   1      14.936   2.387  -3.721  0.00  0.00    +0.139 C 
BRANCH   6   7
ATOM      7  CG  ASP A   1      15.824   2.905  -2.571  0.00  0.00    +0.367 C 
ATOM      8  OD2 ASP A   1      16.719   2.169  -2.060  0.00  0.00    -0.246 OA
ATOM      9  OD1 ASP A   1      15.668   4.063  -2.105  0.00  0.00    -0.246 OA
ENDBRANCH   6   7
ENDBRANCH   1   6
TORSDOF 4
REMARK  Name = ../refined-set-2016/1xh5/1xh5_pocket.pdb
REMARK  251 active torsions:
REMARK  status: ('A' for Active; 'I' for Inactive)
REMARK    1  A    between atoms: _1  and  _3
REMARK    2  A    between atoms: _3  and  _4
REMARK    3  A    between atoms: _3  and  _6
REMARK    4  A    between atoms: _6  and  _7
REMARK    5  A    between atoms: _10  and  _12
REMARK    6  A    between atoms: _12  and  _13
REMARK    7  A    between atoms: _12  and  _15
REMARK    8  A    between atoms: _15  and  _16
REMARK    9  A    between atoms: _19  and  _21
REMARK   10  A    between atoms: _21  and  _22
REMARK   11  A    between atoms: _24  and  _26
REMARK   12  A    between atoms: _26  and  _27
REMARK   13  A    between atoms: _26  and  _29
REMARK   14  A    between atoms: _29  and  _30
REMARK   15  A    between atoms: _33  and  _35
REMARK   16  A    between atoms: _35  and  _36
REMARK   17  A    between atoms: _38  and  _40
REMARK   18  A    between atoms: _40  and  _41
REMARK   19  A    between atoms: _40  and  _43
REMARK   20  A    between atoms: _43  and  _44
REMARK   21  A    between atoms: _46  and  _48
REMARK   22  A    between atoms: _48  and  _49
REMARK   23  A    between atoms: _48  and  _51
REMARK   24  A    between atoms: _51  and  _52
REMARK   25  A    between atoms: _58  and  _60
REMARK   26  A    between atoms: _60  and  _61
REMARK   27  A    between atoms: _63  and  _65
REMARK   28  A    between atoms: _65  and  _66
REMARK   29  A    between atoms: _65  and  _68
REMARK   30  A    between atoms: _68  and  _69
REMARK   31  A    between atoms: _69  and  _70
REMARK   32  A    between atoms: _70  and  _71
REMARK   33  A    between atoms: _80  and  _82
REMARK   34  A    between atoms: _82  and  _83
REMARK   35  A    between atoms: _82  and  _85
REMARK   36  A    between atoms: _88  and  _90
REMARK   37  A    between atoms: _90  and  _91
REMARK   38  A    between atoms: _90  and  _93
REMARK   39  A    between atoms: _93  and  _94
REMARK   40  A    between atoms: _94  and  _95
REMARK   41  A    between atoms: _97  and  _99
REMARK   42  A    between atoms: _99  and  _100
REMARK   43  A    between atoms: _99  and  _102
REMARK   44  A    between atoms: _102  and  _103
REMARK   45  A    between atoms: _106  and  _108
REMARK   46  A    between atoms: _108  and  _109
REMARK   47  A    between atoms: _108  and  _111
REMARK   48  A    between atoms: _111  and  _112
REMARK   49  A    between atoms: _117  and  _118
REMARK   50  A    between atoms: _120  and  _122
REMARK   51  A    between atoms: _122  and  _123
REMARK   52  A    between atoms: _126  and  _128
REMARK   53  A    between atoms: _128  and  _129
REMARK   54  A    between atoms: _128  and  _131
REMARK   55  A    between atoms: _131  and  _132
REMARK   56  A    between atoms: _132  and  _133
REMARK   57  A    between atoms: _135  and  _137
REMARK   58  A    between atoms: _137  and  _138
REMARK   59  A    between atoms: _137  and  _140
REMARK   60  A    between atoms: _140  and  _141
REMARK   61  A    between atoms: _141  and  _142
REMARK   62  A    between atoms: _142  and  _143
REMARK   63  A    between atoms: _143  and  _144
REMARK   64  A    between atoms: _148  and  _150
REMARK   65  A    between atoms: _150  and  _151
REMARK   66  A    between atoms: _150  and  _153
REMARK   67  A    between atoms: _153  and  _154
REMARK   68  A    between atoms: _157  and  _159
REMARK   69  A    between atoms: _159  and  _160
REMARK   70  A    between atoms: _159  and  _162
REMARK   71  A    between atoms: _162  and  _163
REMARK   72  A    between atoms: _166  and  _168
REMARK   73  A    between atoms: _168  and  _169
REMARK   74  A    between atoms: _168  and  _171
REMARK   75  A    between atoms: _171  and  _172
REMARK   76  A    between atoms: _175  and  _177
REMARK   77  A    between atoms: _177  and  _178
REMARK   78  A    between atoms: _177  and  _180
REMARK   79  A    between atoms: _180  and  _181
REMARK   80  A    between atoms: _181  and  _182
REMARK   81  A    between atoms: _182  and  _183
REMARK   82  A    between atoms: _183  and  _184
REMARK   83  A    between atoms: _188  and  _190
REMARK   84  A    between atoms: _190  and  _191
REMARK   85  A    between atoms: _190  and  _193
REMARK   86  A    between atoms: _196  and  _198
REMARK   87  A    between atoms: _198  and  _199
REMARK   88  A    between atoms: _198  and  _201
REMARK   89  A    between atoms: _201  and  _202
REMARK   90  A    between atoms: _205  and  _207
REMARK   91  A    between atoms: _207  and  _208
REMARK   92  A    between atoms: _207  and  _210
REMARK   93  A    between atoms: _210  and  _211
REMARK   94  A    between atoms: _211  and  _212
REMARK   95  A    between atoms: _212  and  _213
REMARK   96  A    between atoms: _213  and  _214
REMARK   97  A    between atoms: _218  and  _220
REMARK   98  A    between atoms: _220  and  _221
REMARK   99  A    between atoms: _220  and  _223
REMARK  100  A    between atoms: _223  and  _224
REMARK  101  A    between atoms: _224  and  _225
REMARK  102  A    between atoms: _230  and  _232
REMARK  103  A    between atoms: _232  and  _233
REMARK  104  A    between atoms: _232  and  _235
REMARK  105  A    between atoms: _235  and  _236
REMARK  106  A    between atoms: _241  and  _243
REMARK  107  A    between atoms: _243  and  _244
REMARK  108  A    between atoms: _243  and  _246
REMARK  109  A    between atoms: _246  and  _247
REMARK  110  A    between atoms: _250  and  _252
REMARK  111  A    between atoms: _252  and  _253
REMARK  112  A    between atoms: _252  and  _255
REMARK  113  A    between atoms: _255  and  _256
REMARK  114  A    between atoms: _256  and  _257
REMARK  115  A    between atoms: _260  and  _262
REMARK  116  A    between atoms: _262  and  _263
REMARK  117  A    between atoms: _262  and  _265
REMARK  118  A    between atoms: _265  and  _266
REMARK  119  A    between atoms: _269  and  _271
REMARK  120  A    between atoms: _271  and  _272
REMARK  121  A    between atoms: _271  and  _274
REMARK  122  A    between atoms: _277  and  _279
REMARK  123  A    between atoms: _279  and  _280
REMARK  124  A    between atoms: _279  and  _282
REMARK  125  A    between atoms: _282  and  _283
REMARK  126  A    between atoms: _283  and  _284
REMARK  127  A    between atoms: _284  and  _285
REMARK  128  A    between atoms: _285  and  _286
REMARK  129  A    between atoms: _290  and  _292
REMARK  130  A    between atoms: _292  and  _293
REMARK  131  A    between atoms: _292  and  _295
REMARK  132  A    between atoms: _295  and  _296
REMARK  133  A    between atoms: _296  and  _297
REMARK  134  A    between atoms: _299  and  _301
REMARK  135  A    between atoms: _301  and  _302
REMARK  136  A    between atoms: _301  and  _304
REMARK  137  A    between atoms: _304  and  _305
REMARK  138  A    between atoms: _305  and  _306
REMARK  139  A    between atoms: _308  and  _310
REMARK  140  A    between atoms: _310  and  _311
REMARK  141  A    between atoms: _310  and  _313
REMARK  142  A    between atoms: _313  and  _314
REMARK  143  A    between atoms: _314  and  _315
REMARK  144  A    between atoms: _318  and  _320
REMARK  145  A    between atoms: _320  and  _321
REMARK  146  A    between atoms: _320  and  _323
REMARK  147  A    between atoms: _323  and  _324
REMARK  148  A    between atoms: _329  and  _330
REMARK  149  A    between atoms: _332  and  _334
REMARK  150  A    between atoms: _334  and  _335
REMARK  151  A    between atoms: _334  and  _337
REMARK  152  A    between atoms: _341  and  _342
REMARK  153  A    between atoms: _347  and  _349
REMARK  154  A    between atoms: _349  and  _350
REMARK  155  A    between atoms: _352  and  _354
REMARK  156  A    between atoms: _354  and  _355
REMARK  157  A    between atoms: _357  and  _359
REMARK  158  A    between atoms: _359  and  _360
REMARK  159  A    between atoms: _359  and  _362
REMARK  160  A    between atoms: _362  and  _363
REMARK  161  A    between atoms: _363  and  _364
REMARK  162  A    between atoms: _367  and  _369
REMARK  163  A    between atoms: _369  and  _370
REMARK  164  A    between atoms: _369  and  _372
REMARK  165  A    between atoms: _372  and  _373
REMARK  166  A    between atoms: _373  and  _374
REMARK  167  A    between atoms: _376  and  _378
REMARK  168  A    between atoms: _378  and  _379
REMARK  169  A    between atoms: _378  and  _381
REMARK  170  A    between atoms: _381  and  _382
REMARK  171  A    between atoms: _388  and  _390
REMARK  172  A    between atoms: _390  and  _391
REMARK  173  A    between atoms: _390  and  _393
REMARK  174  A    between atoms: _393  and  _394
REMARK  175  A    between atoms: _399  and  _400
REMARK  176  A    between atoms: _402  and  _404
REMARK  177  A    between atoms: _404  and  _405
REMARK  178  A    between atoms: _404  and  _407
REMARK  179  A    between atoms: _407  and  _408
REMARK  180  A    between atoms: _411  and  _413
REMARK  181  A    between atoms: _413  and  _414
REMARK  182  A    between atoms: _413  and  _416
REMARK  183  A    between atoms: _416  and  _417
REMARK  184  A    between atoms: _417  and  _418
REMARK  185  A    between atoms: _418  and  _419
REMARK  186  A    between atoms: _419  and  _420
REMARK  187  A    between atoms: _425  and  _426
REMARK  188  A    between atoms: _431  and  _433
REMARK  189  A    between atoms: _433  and  _434
REMARK  190  A    between atoms: _433  and  _436
REMARK  191  A    between atoms: _436  and  _437
REMARK  192  A    between atoms: _437  and  _438
REMARK  193  A    between atoms: _441  and  _443
REMARK  194  A    between atoms: _443  and  _444
REMARK  195  A    between atoms: _443  and  _446
REMARK  196  A    between atoms: _446  and  _447
REMARK  197  A    between atoms: _452  and  _454
REMARK  198  A    between atoms: _454  and  _455
REMARK  199  A    between atoms: _454  and  _457
REMARK  200  A    between atoms: _457  and  _458
REMARK  201  A    between atoms: _461  and  _463
REMARK  202  A    between atoms: _463  and  _464
REMARK  203  A    between atoms: _463  and  _466
REMARK  204  A    between atoms: _466  and  _467
REMARK  205  A    between atoms: _470  and  _472
REMARK  206  A    between atoms: _472  and  _473
REMARK  207  A    between atoms: _472  and  _475
REMARK  208  A    between atoms: _475  and  _476
REMARK  209  A    between atoms: _479  and  _481
REMARK  210  A    between atoms: _481  and  _482
REMARK  211  A    between atoms: _481  and  _484
REMARK  212  A    between atoms: _484  and  _485
REMARK  213  A    between atoms: _485  and  _486
REMARK  214  A    between atoms: _491  and  _493
REMARK  215  A    between atoms: _493  and  _494
REMARK  216  A    between atoms: _493  and  _496
REMARK  217  A    between atoms: _499  and  _501
REMARK  218  A    between atoms: _501  and  _502
REMARK  219  A    between atoms: _501  and  _504
REMARK  220  A    between atoms: _504  and  _505
REMARK  221  A    between atoms: _508  and  _510
REMARK  222  A    between atoms: _510  and  _511
REMARK  223  A    between atoms: _510  and  _513
REMARK  224  A    between atoms: _513  and  _514
REMARK  225  A    between atoms: _517  and  _519
REMARK  226  A    between atoms: _519  and  _520
REMARK  227  A    between atoms: _519  and  _522
REMARK  228  A    between atoms: _522  and  _523
REMARK  229  A    between atoms: _529  and  _531
REMARK  230  A    between atoms: _531  and  _532
REMARK  231  A    between atoms: _534  and  _536
REMARK  232  A    between atoms: _536  and  _537
REMARK  233  A    between atoms: _536  and  _539
REMARK  234  A    between atoms: _539  and  _540
REMARK  235  A    between atoms: _546  and  _548
REMARK  236  A    between atoms: _548  and  _549
REMARK  237  A    between atoms: _552  and  _554
REMARK  238  A    between atoms: _554  and  _555
REMARK  239  A    between atoms: _557  and  _559
REMARK  240  A    between atoms: _559  and  _560
REMARK  241  A    between atoms: _559  and  _562
REMARK  242  A    between atoms: _562  and  _563
REMARK  243  A    between atoms: _566  and  _568
REMARK  244  A    between atoms: _568  and  _569
REMARK  245  A    between atoms: _568  and  _571
REMARK  246  A    between atoms: _571  and  _572
REMARK  247  A    between atoms: _578  and  _580
REMARK  248  A    between atoms: _580  and  _581
REMARK  249  A    between atoms: _580  and  _583
REMARK  250  A    between atoms: _583  and  _584
REMARK  251  A    between atoms: _589  and  _590
REMARK                            x       y       z     vdW  Elec       q    Type
REMARK                         _______ _______ _______ _____ _____    ______ ____
ROOT
ATOM      1  CA  ASN A   4      10.275   3.191   1.976  0.00  0.00    +0.158 C 
ENDROOT
BRANCH   1   2
ATOM      2  C   ASN A   4       8.871   2.556   1.993  0.00  0.00    +0.241 C 
ATOM      3  N   LEU A   5       8.573   1.759   3.017  0.00  0.00    -0.297 N 
ATOM      4  H   LEU A   5       9.282   1.594   3.759  0.00  0.00    +0.150 HD
ATOM      5  O   ASN A   4       8.068   2.811   1.101  0.00  0.00    -0.273 OA
BRANCH   3   6
ATOM      6  CA  LEU A   5       7.283   1.120   3.115  0.00  0.00    +0.149 C 
BRANCH   6   7
ATOM      7  C   LEU A   5       6.536   1.707   4.289  0.00  0.00    +0.241 C 
ATOM      8  O   LEU A   5       6.898   1.471   5.429  0.00  0.00    -0.273 OA
ATOM      9  N   LEU A   6       5.556   2.541   4.004  0.00  0.00    -0.297 N 
ATOM     10  H   LEU A   6       5.330   2.730   3.007  0.00  0.00    +0.150 HD
BRANCH   9  11
ATOM     11  CA  LEU A   6       4.781   3.206   5.039  0.00  0.00    +0.149 C 
BRANCH  11  12
ATOM     12  C   LEU A   6       3.557   2.344   5.379  0.00  0.00    +0.241 C 
ATOM     13  N   ILE A   7       3.136   2.372   6.641  0.00  0.00    -0.298 N 
ATOM     14  H   ILE A   7       3.603   3.024   7.303  0.00  0.00    +0.150 HD
ATOM     15  O   LEU A   6       3.041   1.634   4.519  0.00  0.00    -0.273 OA
BRANCH  13  16
ATOM     16  CA  ILE A   7       2.049   1.531   7.144  0.00  0.00    +0.137 C 
BRANCH  16  17
ATOM     17  CB  ILE A   7       2.459   0.845   8.471  0.00  0.00    +0.026 C 
ATOM     18  CG2 ILE A   7       1.322  -0.064   9.008  0.00  0.00    +0.002 C 
BRANCH  17  19
ATOM     19  CG1 ILE A   7       3.738  -0.015   8.341  0.00  0.00    +0.002 C 
ATOM     20  CD1 ILE A   7       3.714  -1.033   7.210  0.00  0.00    +0.000 C 
ENDBRANCH  17  19
ENDBRANCH  16  17
BRANCH  16  21
ATOM     21  C   ILE A   7       0.838   2.451   7.348  0.00  0.00    +0.227 C 
ATOM     22  O   ILE A   7       0.926   3.440   8.071  0.00  0.00    -0.286 OA
ENDBRANCH  16  21
ENDBRANCH  13  16
ENDBRANCH  11  12
BRANCH  11  23
ATOM     23  CB  LEU A   6       4.348   4.599   4.578  0.00  0.00    +0.029 C 
BRANCH  23  24
ATOM     24  CG  LEU A   6       5.294   5.784   4.743  0.00  0.00    +0.002 C 
ATOM     25  CD2 LEU A   6       5.247   6.343   6.186  0.00  0.00    +0.000 C 
ATOM     26  CD1 LEU A   6       6.738   5.442   4.341  0.00  0.00    +0.000 C 
ENDBRANCH  23  24
ENDBRANCH  11  23
ENDBRANCH   9  11
ENDBRANCH   6   7
BRANCH   6  27
ATOM     27  CB  LEU A   5       7.495  -0.377   3.284  0.00  0.00    +0.029 C 
BRANCH  27  28
ATOM     28  CG  LEU A   5       8.308  -1.019   2.153  0.00  0.00    +0.002 C 
ATOM     29  CD2 LEU A   5       8.533  -2.490   2.442  0.00  0.00    +0.000 C 
ATOM     30  CD1 LEU A   5       7.625  -0.842   0.830  0.00  0.00    +0.000 C 
ENDBRANCH  27  28
ENDBRANCH   6  27
ENDBRANCH   3   6
ENDBRANCH   1   2
BRANCH   1  33
ATOM     31  C   GLU A   3      11.394   3.403   4.124  0.00  0.00    +0.241 C 
ATOM     32  O   GLU A   3      10.879   4.534   4.350  0.00  0.00    -0.273 OA
ATOM     33  N   ASN A   4      11.150   2.695   3.024  0.00  0.00    -0.297 N 
ATOM     34  H   ASN A   4      11.597   1.763   2.912  0.00  0.00    +0.150 HD
BRANCH  31  35
ATOM     35  CA  GLU A   3      12.420   2.785   5.097  0.00  0.00    +0.149 C 
BRANCH  35  38
ATOM     36  C   PRO A   2      11.415   0.541   5.269  0.00  0.00    +0.241 C 
ATOM     37  O   PRO A   2      10.317   0.979   5.601  0.00  0.00    -0.273 OA
ATOM     38  N   GLU A   3      12.468   1.314   5.020  0.00  0.00    -0.297 N 
ATOM     39  H   GLU A   3      13.366   0.860   4.759  0.00  0.00    +0.150 HD
BRANCH  36  42
ATOM     40  C   LYS A   1      12.547  -0.958   2.894  0.00  0.00    +0.241 C 
ATOM     41  N   PRO A   2      12.628  -1.374   4.146  0.00  0.00    -0.272 N 
ATOM     42  CA  PRO A   2      11.614  -0.985   5.139  0.00  0.00    +0.152 C 
ATOM     43  CB  PRO A   2      12.165  -1.569   6.443  0.00  0.00    +0.031 C 
ATOM     44  CG  PRO A   2      12.960  -2.671   6.029  0.00  0.00    +0.024 C 
ATOM     45  CD  PRO A   2      13.636  -2.268   4.724  0.00  0.00    +0.094 C 
ATOM     46  O   LYS A   1      11.638  -0.229   2.515  0.00  0.00    -0.273 OA
BRANCH  40  47
ATOM     47  CA  LYS A   1      13.626  -1.425   1.917  0.00  0.00    +0.145 C 
BRANCH  47  48
ATOM     48  N   LYS A   1      13.063  -1.414   0.555  0.00  0.00    -0.238 NA
ATOM     49  H   LYS A   1      12.088  -1.072   0.438  0.00  0.00    +0.142 HD
ENDBRANCH  47  48
BRANCH  47  50
ATOM     50  CB  LYS A   1      14.885  -0.548   2.061  0.00  0.00    +0.026 C 
BRANCH  50  51
ATOM     51  CG  LYS A   1      14.743   0.896   1.651  0.00  0.00    -0.000 C 
BRANCH  51  52
ATOM     52  CD  LYS A   1      16.098   1.639   1.782  0.00  0.00    -0.024 C 
BRANCH  52  53
ATOM     53  CE  LYS A   1      16.062   3.096   1.307  0.00  0.00    -0.086 C 
BRANCH  53  54
ATOM     54  NZ  LYS A   1      17.439   3.757   1.269  0.00  0.00    +0.380 N 
ATOM     55  HZ1 LYS A   1      17.852   3.749   2.223  0.00  0.00    -0.089 HD
ATOM     56  HZ2 LYS A   1      17.342   4.739   0.940  0.00  0.00    -0.089 HD
ATOM     57  HZ3 LYS A   1      18.057   3.231   0.618  0.00  0.00    -0.089 HD
ENDBRANCH  53  54
ENDBRANCH  52  53
ENDBRANCH  51  52
ENDBRANCH  50  51
ENDBRANCH  47  50
ENDBRANCH  40  47
ENDBRANCH  36  42
ENDBRANCH  35  38
BRANCH  35  58
ATOM     58  CB  GLU A   3      13.809   3.375   4.795  0.00  0.00    +0.041 C 
BRANCH  58  59
ATOM     59  CG  GLU A   3      14.847   3.132   5.914  0.00  0.00    +0.116 C 
BRANCH  59  60
ATOM     60  CD  GLU A   3      15.729   1.884   5.730  0.00  0.00    +0.365 C 
ATOM     61  OE2 GLU A   3      16.895   1.967   6.084  0.00  0.00    -0.246 OA
ATOM     62  OE1 GLU A   3      15.287   0.821   5.276  0.00  0.00    -0.246 OA
ENDBRANCH  59  60
ENDBRANCH  58  59
ENDBRANCH  35  58
ENDBRANCH  31  35
ENDBRANCH   1  33
BRANCH   1  63
ATOM     63  CB  ASN A   4      10.937   3.019   0.621  0.00  0.00    +0.114 C 
BRANCH  63  64
ATOM     64  CG  ASN A   4      12.128   3.960   0.428  0.00  0.00    +0.222 C 
ATOM     65  OD1 ASN A   4      12.337   4.875   1.212  0.00  0.00    -0.275 OA
ATOM     66  ND2 ASN A   4      12.948   3.677  -0.567  0.00  0.00    -0.329 N 
ATOM     67 HD21 ASN A   4      13.810   4.242  -0.707  0.00  0.00    +0.145 HD
ATOM     68 HD22 ASN A   4      12.732   2.889  -1.211  0.00  0.00    +0.145 HD
ENDBRANCH  63  64
ENDBRANCH   1  63
TORSDOF 29
REMARK  Name = ../refined-set-2016/1xh5/1xh5_pocket.pdb
REMARK  251 active torsions:
REMARK  status: ('A' for Active; 'I' for Inactive)
REMARK    1  A    between atoms: _1  and  _3
REMARK    2  A    between atoms: _3  and  _4
REMARK    3  A    between atoms: _3  and  _6
REMARK    4  A    between atoms: _6  and  _7
REMARK    5  A    between atoms: _10  and  _12
REMARK    6  A    between atoms: _12  and  _13
REMARK    7  A    between atoms: _12  and  _15
REMARK    8  A    between atoms: _15  and  _16
REMARK    9  A    between atoms: _19  and  _21
REMARK   10  A    between atoms: _21  and  _22
REMARK   11  A    between atoms: _24  and  _26
REMARK   12  A    between atoms: _26  and  _27
REMARK   13  A    between atoms: _26  and  _29
REMARK   14  A    between atoms: _29  and  _30
REMARK   15  A    between atoms: _33  and  _35
REMARK   16  A    between atoms: _35  and  _36
REMARK   17  A    between atoms: _38  and  _40
REMARK   18  A    between atoms: _40  and  _41
REMARK   19  A    between atoms: _40  and  _43
REMARK   20  A    between atoms: _43  and  _44
REMARK   21  A    between atoms: _46  and  _48
REMARK   22  A    between atoms: _48  and  _49
REMARK   23  A    between atoms: _48  and  _51
REMARK   24  A    between atoms: _51  and  _52
REMARK   25  A    between atoms: _58  and  _60
REMARK   26  A    between atoms: _60  and  _61
REMARK   27  A    between atoms: _63  and  _65
REMARK   28  A    between atoms: _65  and  _66
REMARK   29  A    between atoms: _65  and  _68
REMARK   30  A    between atoms: _68  and  _69
REMARK   31  A    between atoms: _69  and  _70
REMARK   32  A    between atoms: _70  and  _71
REMARK   33  A    between atoms: _80  and  _82
REMARK   34  A    between atoms: _82  and  _83
REMARK   35  A    between atoms: _82  and  _85
REMARK   36  A    between atoms: _88  and  _90
REMARK   37  A    between atoms: _90  and  _91
REMARK   38  A    between atoms: _90  and  _93
REMARK   39  A    between atoms: _93  and  _94
REMARK   40  A    between atoms: _94  and  _95
REMARK   41  A    between atoms: _97  and  _99
REMARK   42  A    between atoms: _99  and  _100
REMARK   43  A    between atoms: _99  and  _102
REMARK   44  A    between atoms: _102  and  _103
REMARK   45  A    between atoms: _106  and  _108
REMARK   46  A    between atoms: _108  and  _109
REMARK   47  A    between atoms: _108  and  _111
REMARK   48  A    between atoms: _111  and  _112
REMARK   49  A    between atoms: _117  and  _118
REMARK   50  A    between atoms: _120  and  _122
REMARK   51  A    between atoms: _122  and  _123
REMARK   52  A    between atoms: _126  and  _128
REMARK   53  A    between atoms: _128  and  _129
REMARK   54  A    between atoms: _128  and  _131
REMARK   55  A    between atoms: _131  and  _132
REMARK   56  A    between atoms: _132  and  _133
REMARK   57  A    between atoms: _135  and  _137
REMARK   58  A    between atoms: _137  and  _138
REMARK   59  A    between atoms: _137  and  _140
REMARK   60  A    between atoms: _140  and  _141
REMARK   61  A    between atoms: _141  and  _142
REMARK   62  A    between atoms: _142  and  _143
REMARK   63  A    between atoms: _143  and  _144
REMARK   64  A    between atoms: _148  and  _150
REMARK   65  A    between atoms: _150  and  _151
REMARK   66  A    between atoms: _150  and  _153
REMARK   67  A    between atoms: _153  and  _154
REMARK   68  A    between atoms: _157  and  _159
REMARK   69  A    between atoms: _159  and  _160
REMARK   70  A    between atoms: _159  and  _162
REMARK   71  A    between atoms: _162  and  _163
REMARK   72  A    between atoms: _166  and  _168
REMARK   73  A    between atoms: _168  and  _169
REMARK   74  A    between atoms: _168  and  _171
REMARK   75  A    between atoms: _171  and  _172
REMARK   76  A    between atoms: _175  and  _177
REMARK   77  A    between atoms: _177  and  _178
REMARK   78  A    between atoms: _177  and  _180
REMARK   79  A    between atoms: _180  and  _181
REMARK   80  A    between atoms: _181  and  _182
REMARK   81  A    between atoms: _182  and  _183
REMARK   82  A    between atoms: _183  and  _184
REMARK   83  A    between atoms: _188  and  _190
REMARK   84  A    between atoms: _190  and  _191
REMARK   85  A    between atoms: _190  and  _193
REMARK   86  A    between atoms: _196  and  _198
REMARK   87  A    between atoms: _198  and  _199
REMARK   88  A    between atoms: _198  and  _201
REMARK   89  A    between atoms: _201  and  _202
REMARK   90  A    between atoms: _205  and  _207
REMARK   91  A    between atoms: _207  and  _208
REMARK   92  A    between atoms: _207  and  _210
REMARK   93  A    between atoms: _210  and  _211
REMARK   94  A    between atoms: _211  and  _212
REMARK   95  A    between atoms: _212  and  _213
REMARK   96  A    between atoms: _213  and  _214
REMARK   97  A    between atoms: _218  and  _220
REMARK   98  A    between atoms: _220  and  _221
REMARK   99  A    between atoms: _220  and  _223
REMARK  100  A    between atoms: _223  and  _224
REMARK  101  A    between atoms: _224  and  _225
REMARK  102  A    between atoms: _230  and  _232
REMARK  103  A    between atoms: _232  and  _233
REMARK  104  A    between atoms: _232  and  _235
REMARK  105  A    between atoms: _235  and  _236
REMARK  106  A    between atoms: _241  and  _243
REMARK  107  A    between atoms: _243  and  _244
REMARK  108  A    between atoms: _243  and  _246
REMARK  109  A    between atoms: _246  and  _247
REMARK  110  A    between atoms: _250  and  _252
REMARK  111  A    between atoms: _252  and  _253
REMARK  112  A    between atoms: _252  and  _255
REMARK  113  A    between atoms: _255  and  _256
REMARK  114  A    between atoms: _256  and  _257
REMARK  115  A    between atoms: _260  and  _262
REMARK  116  A    between atoms: _262  and  _263
REMARK  117  A    between atoms: _262  and  _265
REMARK  118  A    between atoms: _265  and  _266
REMARK  119  A    between atoms: _269  and  _271
REMARK  120  A    between atoms: _271  and  _272
REMARK  121  A    between atoms: _271  and  _274
REMARK  122  A    between atoms: _277  and  _279
REMARK  123  A    between atoms: _279  and  _280
REMARK  124  A    between atoms: _279  and  _282
REMARK  125  A    between atoms: _282  and  _283
REMARK  126  A    between atoms: _283  and  _284
REMARK  127  A    between atoms: _284  and  _285
REMARK  128  A    between atoms: _285  and  _286
REMARK  129  A    between atoms: _290  and  _292
REMARK  130  A    between atoms: _292  and  _293
REMARK  131  A    between atoms: _292  and  _295
REMARK  132  A    between atoms: _295  and  _296
REMARK  133  A    between atoms: _296  and  _297
REMARK  134  A    between atoms: _299  and  _301
REMARK  135  A    between atoms: _301  and  _302
REMARK  136  A    between atoms: _301  and  _304
REMARK  137  A    between atoms: _304  and  _305
REMARK  138  A    between atoms: _305  and  _306
REMARK  139  A    between atoms: _308  and  _310
REMARK  140  A    between atoms: _310  and  _311
REMARK  141  A    between atoms: _310  and  _313
REMARK  142  A    between atoms: _313  and  _314
REMARK  143  A    between atoms: _314  and  _315
REMARK  144  A    between atoms: _318  and  _320
REMARK  145  A    between atoms: _320  and  _321
REMARK  146  A    between atoms: _320  and  _323
REMARK  147  A    between atoms: _323  and  _324
REMARK  148  A    between atoms: _329  and  _330
REMARK  149  A    between atoms: _332  and  _334
REMARK  150  A    between atoms: _334  and  _335
REMARK  151  A    between atoms: _334  and  _337
REMARK  152  A    between atoms: _341  and  _342
REMARK  153  A    between atoms: _347  and  _349
REMARK  154  A    between atoms: _349  and  _350
REMARK  155  A    between atoms: _352  and  _354
REMARK  156  A    between atoms: _354  and  _355
REMARK  157  A    between atoms: _357  and  _359
REMARK  158  A    between atoms: _359  and  _360
REMARK  159  A    between atoms: _359  and  _362
REMARK  160  A    between atoms: _362  and  _363
REMARK  161  A    between atoms: _363  and  _364
REMARK  162  A    between atoms: _367  and  _369
REMARK  163  A    between atoms: _369  and  _370
REMARK  164  A    between atoms: _369  and  _372
REMARK  165  A    between atoms: _372  and  _373
REMARK  166  A    between atoms: _373  and  _374
REMARK  167  A    between atoms: _376  and  _378
REMARK  168  A    between atoms: _378  and  _379
REMARK  169  A    between atoms: _378  and  _381
REMARK  170  A    between atoms: _381  and  _382
REMARK  171  A    between atoms: _388  and  _390
REMARK  172  A    between atoms: _390  and  _391
REMARK  173  A    between atoms: _390  and  _393
REMARK  174  A    between atoms: _393  and  _394
REMARK  175  A    between atoms: _399  and  _400
REMARK  176  A    between atoms: _402  and  _404
REMARK  177  A    between atoms: _404  and  _405
REMARK  178  A    between atoms: _404  and  _407
REMARK  179  A    between atoms: _407  and  _408
REMARK  180  A    between atoms: _411  and  _413
REMARK  181  A    between atoms: _413  and  _414
REMARK  182  A    between atoms: _413  and  _416
REMARK  183  A    between atoms: _416  and  _417
REMARK  184  A    between atoms: _417  and  _418
REMARK  185  A    between atoms: _418  and  _419
REMARK  186  A    between atoms: _419  and  _420
REMARK  187  A    between atoms: _425  and  _426
REMARK  188  A    between atoms: _431  and  _433
REMARK  189  A    between atoms: _433  and  _434
REMARK  190  A    between atoms: _433  and  _436
REMARK  191  A    between atoms: _436  and  _437
REMARK  192  A    between atoms: _437  and  _438
REMARK  193  A    between atoms: _441  and  _443
REMARK  194  A    between atoms: _443  and  _444
REMARK  195  A    between atoms: _443  and  _446
REMARK  196  A    between atoms: _446  and  _447
REMARK  197  A    between atoms: _452  and  _454
REMARK  198  A    between atoms: _454  and  _455
REMARK  199  A    between atoms: _454  and  _457
REMARK  200  A    between atoms: _457  and  _458
REMARK  201  A    between atoms: _461  and  _463
REMARK  202  A    between atoms: _463  and  _464
REMARK  203  A    between atoms: _463  and  _466
REMARK  204  A    between atoms: _466  and  _467
REMARK  205  A    between atoms: _470  and  _472
REMARK  206  A    between atoms: _472  and  _473
REMARK  207  A    between atoms: _472  and  _475
REMARK  208  A    between atoms: _475  and  _476
REMARK  209  A    between atoms: _479  and  _481
REMARK  210  A    between atoms: _481  and  _482
REMARK  211  A    between atoms: _481  and  _484
REMARK  212  A    between atoms: _484  and  _485
REMARK  213  A    between atoms: _485  and  _486
REMARK  214  A    between atoms: _491  and  _493
REMARK  215  A    between atoms: _493  and  _494
REMARK  216  A    between atoms: _493  and  _496
REMARK  217  A    between atoms: _499  and  _501
REMARK  218  A    between atoms: _501  and  _502
REMARK  219  A    between atoms: _501  and  _504
REMARK  220  A    between atoms: _504  and  _505
REMARK  221  A    between atoms: _508  and  _510
REMARK  222  A    between atoms: _510  and  _511
REMARK  223  A    between atoms: _510  and  _513
REMARK  224  A    between atoms: _513  and  _514
REMARK  225  A    between atoms: _517  and  _519
REMARK  226  A    between atoms: _519  and  _520
REMARK  227  A    between atoms: _519  and  _522
REMARK  228  A    between atoms: _522  and  _523
REMARK  229  A    between atoms: _529  and  _531
REMARK  230  A    between atoms: _531  and  _532
REMARK  231  A    between atoms: _534  and  _536
REMARK  232  A    between atoms: _536  and  _537
REMARK  233  A    between atoms: _536  and  _539
REMARK  234  A    between atoms: _539  and  _540
REMARK  235  A    between atoms: _546  and  _548
REMARK  236  A    between atoms: _548  and  _549
REMARK  237  A    between atoms: _552  and  _554
REMARK  238  A    between atoms: _554  and  _555
REMARK  239  A    between atoms: _557  and  _559
REMARK  240  A    between atoms: _559  and  _560
REMARK  241  A    between atoms: _559  and  _562
REMARK  242  A    between atoms: _562  and  _563
REMARK  243  A    between atoms: _566  and  _568
REMARK  244  A    between atoms: _568  and  _569
REMARK  245  A    between atoms: _568  and  _571
REMARK  246  A    between atoms: _571  and  _572
REMARK  247  A    between atoms: _578  and  _580
REMARK  248  A    between atoms: _580  and  _581
REMARK  249  A    between atoms: _580  and  _583
REMARK  250  A    between atoms: _583  and  _584
REMARK  251  A    between atoms: _589  and  _590
REMARK                            x       y       z     vdW  Elec       q    Type
REMARK                         _______ _______ _______ _____ _____    ______ ____
ROOT
ATOM      1  C   ASP A   4      10.566   6.578  -4.010  0.00  0.00    +0.241 C 
ATOM      2  O   ASP A   4      11.424   5.677  -4.022  0.00  0.00    -0.273 OA
ATOM      3  N   PHE A   5      10.008   7.082  -5.120  0.00  0.00    -0.297 N 
ATOM      4  H   PHE A   5       9.379   7.904  -5.020  0.00  0.00    +0.150 HD
ENDROOT
BRANCH   1   5
ATOM      5  CA  ASP A   4      10.148   7.291  -2.712  0.00  0.00    +0.160 C 
BRANCH   5   8
ATOM      6  C   THR A   3       8.421   5.733  -1.861  0.00  0.00    +0.243 C 
ATOM      7  O   THR A   3       9.186   4.799  -1.889  0.00  0.00    -0.273 OA
ATOM      8  N   ASP A   4       8.785   6.949  -2.244  0.00  0.00    -0.296 N 
ATOM      9  H   ASP A   4       8.073   7.706  -2.214  0.00  0.00    +0.150 HD
BRANCH   6  10
ATOM     10  CA  THR A   3       6.998   5.582  -1.243  0.00  0.00    +0.176 C 
BRANCH  10  12
ATOM     11  C   VAL A   2       5.555   3.613  -1.439  0.00  0.00    +0.241 C 
ATOM     12  N   THR A   3       6.658   4.188  -0.957  0.00  0.00    -0.295 N 
ATOM     13  H   THR A   3       7.297   3.627  -0.358  0.00  0.00    +0.150 HD
ATOM     14  O   VAL A   2       4.708   4.225  -2.111  0.00  0.00    -0.273 OA
BRANCH  11  15
ATOM     15  CA  VAL A   2       5.381   2.144  -1.149  0.00  0.00    +0.148 C 
BRANCH  15  18
ATOM     16  C   GLN A   1       3.639   2.293   0.521  0.00  0.00    +0.238 C 
ATOM     17  O   GLN A   1       4.381   2.856   1.333  0.00  0.00    -0.274 OA
ATOM     18  N   VAL A   2       4.031   1.941  -0.698  0.00  0.00    -0.297 N 
ATOM     19  H   VAL A   2       3.342   1.506  -1.345  0.00  0.00    +0.150 HD
BRANCH  16  20
ATOM     20  CA  GLN A   1       2.181   1.988   0.887  0.00  0.00    +0.145 C 
BRANCH  20  21
ATOM     21  N   GLN A   1       2.166   1.055   1.993  0.00  0.00    -0.238 NA
ATOM     22  H   GLN A   1       2.784   1.263   2.803  0.00  0.00    +0.142 HD
ENDBRANCH  20  21
BRANCH  20  23
ATOM     23  CB  GLN A   1       1.543   3.281   1.334  0.00  0.00    +0.036 C 
BRANCH  23  24
ATOM     24  CG  GLN A   1       0.134   3.054   1.834  0.00  0.00    +0.087 C 
BRANCH  24  25
ATOM     25  CD  GLN A   1      -0.796   3.439   0.753  0.00  0.00    +0.219 C 
ATOM     26  OE1 GLN A   1      -1.389   4.538   0.795  0.00  0.00    -0.275 OA
ATOM     27  NE2 GLN A   1      -0.821   2.633  -0.297  0.00  0.00    -0.329 N 
ATOM     28 HE21 GLN A   1      -0.306   1.730  -0.271  0.00  0.00    +0.145 HD
ATOM     29 HE22 GLN A   1      -1.355   2.903  -1.147  0.00  0.00    +0.145 HD
ENDBRANCH  24  25
ENDBRANCH  23  24
ENDBRANCH  20  23
ENDBRANCH  16  20
ENDBRANCH  15  18
BRANCH  15  30
ATOM     30  CB  VAL A   2       5.657   1.311  -2.417  0.00  0.00    +0.027 C 
ATOM     31  CG2 VAL A   2       5.461  -0.134  -2.146  0.00  0.00    +0.002 C 
ATOM     32  CG1 VAL A   2       7.053   1.582  -2.964  0.00  0.00    +0.002 C 
ENDBRANCH  15  30
ENDBRANCH  11  15
ENDBRANCH  10  12
BRANCH  10  33
ATOM     33  CB  THR A   3       6.940   6.428   0.024  0.00  0.00    +0.137 C 
ATOM     34  CG2 THR A   3       5.625   6.258   0.747  0.00  0.00    +0.034 C 
BRANCH  33  35
ATOM     35  OG1 THR A   3       7.960   5.982   0.955  0.00  0.00    -0.382 OA
ATOM     36  HG1 THR A   3       7.802   5.032   1.186  0.00  0.00    +0.210 HD
ENDBRANCH  33  35
ENDBRANCH  10  33
ENDBRANCH   6  10
ENDBRANCH   5   8
BRANCH   5  37
ATOM     37  CB  ASP A   4      11.191   7.140  -1.574  0.00  0.00    +0.143 C 
BRANCH  37  38
ATOM     38  CG  ASP A   4      11.159   8.332  -0.605  0.00  0.00    +0.367 C 
ATOM     39  OD2 ASP A   4      11.598   8.285   0.564  0.00  0.00    -0.246 OA
ATOM     40  OD1 ASP A   4      10.640   9.423  -1.007  0.00  0.00    -0.246 OA
ENDBRANCH  37  38
ENDBRANCH   5  37
ENDBRANCH   1   5
BRANCH   3  41
ATOM     41  CA  PHE A   5      10.230   6.547  -6.463  0.00  0.00    +0.153 C 
BRANCH  41  42
ATOM     42  C   PHE A   5      11.354   7.228  -7.227  0.00  0.00    +0.241 C 
ATOM     43  N   GLY A   6      12.263   7.882  -6.510  0.00  0.00    -0.295 N 
ATOM     44  H   GLY A   6      12.155   7.914  -5.476  0.00  0.00    +0.150 HD
ATOM     45  O   PHE A   5      11.401   7.145  -8.456  0.00  0.00    -0.273 OA
BRANCH  43  46
ATOM     46  CA  GLY A   6      13.409   8.558  -7.119  0.00  0.00    +0.176 C 
BRANCH  46  47
ATOM     47  C   GLY A   6      14.314   7.704  -8.033  0.00  0.00    +0.243 C 
ATOM     48  N   PHE A   7      14.348   6.398  -7.825  0.00  0.00    -0.297 N 
ATOM     49  H   PHE A   7      13.845   6.009  -7.002  0.00  0.00    +0.150 HD
ATOM     50  O   GLY A   6      14.962   8.230  -8.905  0.00  0.00    -0.273 OA
BRANCH  48  51
ATOM     51  CA  PHE A   7      15.070   5.477  -8.714  0.00  0.00    +0.153 C 
BRANCH  51  52
ATOM     52  C   PHE A   7      14.187   4.602  -9.561  0.00  0.00    +0.241 C 
ATOM     53  N   ALA A   8      12.887   4.840  -9.560  0.00  0.00    -0.298 N 
ATOM     54  H   ALA A   8      12.508   5.610  -8.972  0.00  0.00    +0.150 HD
ATOM     55  O   PHE A   7      14.689   3.711 -10.232  0.00  0.00    -0.273 OA
BRANCH  53  56
ATOM     56  CA  ALA A   8      11.965   4.032 -10.378  0.00  0.00    +0.137 C 
ATOM     57  CB  ALA A   8      10.553   4.175  -9.937  0.00  0.00    +0.030 C 
BRANCH  56  58
ATOM     58  C   ALA A   8      12.136   4.471 -11.798  0.00  0.00    +0.227 C 
ATOM     59  O   ALA A   8      12.436   5.619 -12.047  0.00  0.00    -0.286 OA
ENDBRANCH  56  58
ENDBRANCH  53  56
ENDBRANCH  51  52
BRANCH  51  60
ATOM     60  CB  PHE A   7      16.077   4.645  -7.880  0.00  0.00    +0.055 C 
BRANCH  60  61
ATOM     61  CG  PHE A   7      17.128   5.524  -7.237  0.00  0.00    -0.020 A 
ATOM     62  CD2 PHE A   7      17.077   5.832  -5.915  0.00  0.00    -0.004 A 
ATOM     63  CE2 PHE A   7      17.998   6.733  -5.352  0.00  0.00    -0.000 A 
ATOM     64  CZ  PHE A   7      18.932   7.326  -6.126  0.00  0.00    -0.000 A 
ATOM     65  CE1 PHE A   7      18.976   7.055  -7.445  0.00  0.00    -0.000 A 
ATOM     66  CD1 PHE A   7      18.056   6.184  -8.019  0.00  0.00    -0.004 A 
ENDBRANCH  60  61
ENDBRANCH  51  60
ENDBRANCH  48  51
ENDBRANCH  46  47
ENDBRANCH  43  46
ENDBRANCH  41  42
BRANCH  41  67
ATOM     67  CB  PHE A   5       8.902   6.592  -7.261  0.00  0.00    +0.055 C 
BRANCH  67  68
ATOM     68  CG  PHE A   5       7.866   5.685  -6.690  0.00  0.00    -0.020 A 
ATOM     69  CD2 PHE A   5       7.194   6.043  -5.539  0.00  0.00    -0.004 A 
ATOM     70  CE2 PHE A   5       6.270   5.202  -4.988  0.00  0.00    -0.000 A 
ATOM     71  CZ  PHE A   5       6.057   3.973  -5.555  0.00  0.00    -0.000 A 
ATOM     72  CE1 PHE A   5       6.737   3.592  -6.658  0.00  0.00    -0.000 A 
ATOM     73  CD1 PHE A   5       7.647   4.447  -7.229  0.00  0.00    -0.004 A 
ENDBRANCH  67  68
ENDBRANCH  41  67
ENDBRANCH   3  41
TORSDOF 28
REMARK  Name = ../refined-set-2016/1xh5/1xh5_pocket.pdb
REMARK  251 active torsions:
REMARK  status: ('A' for Active; 'I' for Inactive)
REMARK    1  A    between atoms: _1  and  _3
REMARK    2  A    between atoms: _3  and  _4
REMARK    3  A    between atoms: _3  and  _6
REMARK    4  A    between atoms: _6  and  _7
REMARK    5  A    between atoms: _10  and  _12
REMARK    6  A    between atoms: _12  and  _13
REMARK    7  A    between atoms: _12  and  _15
REMARK    8  A    between atoms: _15  and  _16
REMARK    9  A    between atoms: _19  and  _21
REMARK   10  A    between atoms: _21  and  _22
REMARK   11  A    between atoms: _24  and  _26
REMARK   12  A    between atoms: _26  and  _27
REMARK   13  A    between atoms: _26  and  _29
REMARK   14  A    between atoms: _29  and  _30
REMARK   15  A    between atoms: _33  and  _35
REMARK   16  A    between atoms: _35  and  _36
REMARK   17  A    between atoms: _38  and  _40
REMARK   18  A    between atoms: _40  and  _41
REMARK   19  A    between atoms: _40  and  _43
REMARK   20  A    between atoms: _43  and  _44
REMARK   21  A    between atoms: _46  and  _48
REMARK   22  A    between atoms: _48  and  _49
REMARK   23  A    between atoms: _48  and  _51
REMARK   24  A    between atoms: _51  and  _52
REMARK   25  A    between atoms: _58  and  _60
REMARK   26  A    between atoms: _60  and  _61
REMARK   27  A    between atoms: _63  and  _65
REMARK   28  A    between atoms: _65  and  _66
REMARK   29  A    between atoms: _65  and  _68
REMARK   30  A    between atoms: _68  and  _69
REMARK   31  A    between atoms: _69  and  _70
REMARK   32  A    between atoms: _70  and  _71
REMARK   33  A    between atoms: _80  and  _82
REMARK   34  A    between atoms: _82  and  _83
REMARK   35  A    between atoms: _82  and  _85
REMARK   36  A    between atoms: _88  and  _90
REMARK   37  A    between atoms: _90  and  _91
REMARK   38  A    between atoms: _90  and  _93
REMARK   39  A    between atoms: _93  and  _94
REMARK   40  A    between atoms: _94  and  _95
REMARK   41  A    between atoms: _97  and  _99
REMARK   42  A    between atoms: _99  and  _100
REMARK   43  A    between atoms: _99  and  _102
REMARK   44  A    between atoms: _102  and  _103
REMARK   45  A    between atoms: _106  and  _108
REMARK   46  A    between atoms: _108  and  _109
REMARK   47  A    between atoms: _108  and  _111
REMARK   48  A    between atoms: _111  and  _112
REMARK   49  A    between atoms: _117  and  _118
REMARK   50  A    between atoms: _120  and  _122
REMARK   51  A    between atoms: _122  and  _123
REMARK   52  A    between atoms: _126  and  _128
REMARK   53  A    between atoms: _128  and  _129
REMARK   54  A    between atoms: _128  and  _131
REMARK   55  A    between atoms: _131  and  _132
REMARK   56  A    between atoms: _132  and  _133
REMARK   57  A    between atoms: _135  and  _137
REMARK   58  A    between atoms: _137  and  _138
REMARK   59  A    between atoms: _137  and  _140
REMARK   60  A    between atoms: _140  and  _141
REMARK   61  A    between atoms: _141  and  _142
REMARK   62  A    between atoms: _142  and  _143
REMARK   63  A    between atoms: _143  and  _144
REMARK   64  A    between atoms: _148  and  _150
REMARK   65  A    between atoms: _150  and  _151
REMARK   66  A    between atoms: _150  and  _153
REMARK   67  A    between atoms: _153  and  _154
REMARK   68  A    between atoms: _157  and  _159
REMARK   69  A    between atoms: _159  and  _160
REMARK   70  A    between atoms: _159  and  _162
REMARK   71  A    between atoms: _162  and  _163
REMARK   72  A    between atoms: _166  and  _168
REMARK   73  A    between atoms: _168  and  _169
REMARK   74  A    between atoms: _168  and  _171
REMARK   75  A    between atoms: _171  and  _172
REMARK   76  A    between atoms: _175  and  _177
REMARK   77  A    between atoms: _177  and  _178
REMARK   78  A    between atoms: _177  and  _180
REMARK   79  A    between atoms: _180  and  _181
REMARK   80  A    between atoms: _181  and  _182
REMARK   81  A    between atoms: _182  and  _183
REMARK   82  A    between atoms: _183  and  _184
REMARK   83  A    between atoms: _188  and  _190
REMARK   84  A    between atoms: _190  and  _191
REMARK   85  A    between atoms: _190  and  _193
REMARK   86  A    between atoms: _196  and  _198
REMARK   87  A    between atoms: _198  and  _199
REMARK   88  A    between atoms: _198  and  _201
REMARK   89  A    between atoms: _201  and  _202
REMARK   90  A    between atoms: _205  and  _207
REMARK   91  A    between atoms: _207  and  _208
REMARK   92  A    between atoms: _207  and  _210
REMARK   93  A    between atoms: _210  and  _211
REMARK   94  A    between atoms: _211  and  _212
REMARK   95  A    between atoms: _212  and  _213
REMARK   96  A    between atoms: _213  and  _214
REMARK   97  A    between atoms: _218  and  _220
REMARK   98  A    between atoms: _220  and  _221
REMARK   99  A    between atoms: _220  and  _223
REMARK  100  A    between atoms: _223  and  _224
REMARK  101  A    between atoms: _224  and  _225
REMARK  102  A    between atoms: _230  and  _232
REMARK  103  A    between atoms: _232  and  _233
REMARK  104  A    between atoms: _232  and  _235
REMARK  105  A    between atoms: _235  and  _236
REMARK  106  A    between atoms: _241  and  _243
REMARK  107  A    between atoms: _243  and  _244
REMARK  108  A    between atoms: _243  and  _246
REMARK  109  A    between atoms: _246  and  _247
REMARK  110  A    between atoms: _250  and  _252
REMARK  111  A    between atoms: _252  and  _253
REMARK  112  A    between atoms: _252  and  _255
REMARK  113  A    between atoms: _255  and  _256
REMARK  114  A    between atoms: _256  and  _257
REMARK  115  A    between atoms: _260  and  _262
REMARK  116  A    between atoms: _262  and  _263
REMARK  117  A    between atoms: _262  and  _265
REMARK  118  A    between atoms: _265  and  _266
REMARK  119  A    between atoms: _269  and  _271
REMARK  120  A    between atoms: _271  and  _272
REMARK  121  A    between atoms: _271  and  _274
REMARK  122  A    between atoms: _277  and  _279
REMARK  123  A    between atoms: _279  and  _280
REMARK  124  A    between atoms: _279  and  _282
REMARK  125  A    between atoms: _282  and  _283
REMARK  126  A    between atoms: _283  and  _284
REMARK  127  A    between atoms: _284  and  _285
REMARK  128  A    between atoms: _285  and  _286
REMARK  129  A    between atoms: _290  and  _292
REMARK  130  A    between atoms: _292  and  _293
REMARK  131  A    between atoms: _292  and  _295
REMARK  132  A    between atoms: _295  and  _296
REMARK  133  A    between atoms: _296  and  _297
REMARK  134  A    between atoms: _299  and  _301
REMARK  135  A    between atoms: _301  and  _302
REMARK  136  A    between atoms: _301  and  _304
REMARK  137  A    between atoms: _304  and  _305
REMARK  138  A    between atoms: _305  and  _306
REMARK  139  A    between atoms: _308  and  _310
REMARK  140  A    between atoms: _310  and  _311
REMARK  141  A    between atoms: _310  and  _313
REMARK  142  A    between atoms: _313  and  _314
REMARK  143  A    between atoms: _314  and  _315
REMARK  144  A    between atoms: _318  and  _320
REMARK  145  A    between atoms: _320  and  _321
REMARK  146  A    between atoms: _320  and  _323
REMARK  147  A    between atoms: _323  and  _324
REMARK  148  A    between atoms: _329  and  _330
REMARK  149  A    between atoms: _332  and  _334
REMARK  150  A    between atoms: _334  and  _335
REMARK  151  A    between atoms: _334  and  _337
REMARK  152  A    between atoms: _341  and  _342
REMARK  153  A    between atoms: _347  and  _349
REMARK  154  A    between atoms: _349  and  _350
REMARK  155  A    between atoms: _352  and  _354
REMARK  156  A    between atoms: _354  and  _355
REMARK  157  A    between atoms: _357  and  _359
REMARK  158  A    between atoms: _359  and  _360
REMARK  159  A    between atoms: _359  and  _362
REMARK  160  A    between atoms: _362  and  _363
REMARK  161  A    between atoms: _363  and  _364
REMARK  162  A    between atoms: _367  and  _369
REMARK  163  A    between atoms: _369  and  _370
REMARK  164  A    between atoms: _369  and  _372
REMARK  165  A    between atoms: _372  and  _373
REMARK  166  A    between atoms: _373  and  _374
REMARK  167  A    between atoms: _376  and  _378
REMARK  168  A    between atoms: _378  and  _379
REMARK  169  A    between atoms: _378  and  _381
REMARK  170  A    between atoms: _381  and  _382
REMARK  171  A    between atoms: _388  and  _390
REMARK  172  A    between atoms: _390  and  _391
REMARK  173  A    between atoms: _390  and  _393
REMARK  174  A    between atoms: _393  and  _394
REMARK  175  A    between atoms: _399  and  _400
REMARK  176  A    between atoms: _402  and  _404
REMARK  177  A    between atoms: _404  and  _405
REMARK  178  A    between atoms: _404  and  _407
REMARK  179  A    between atoms: _407  and  _408
REMARK  180  A    between atoms: _411  and  _413
REMARK  181  A    between atoms: _413  and  _414
REMARK  182  A    between atoms: _413  and  _416
REMARK  183  A    between atoms: _416  and  _417
REMARK  184  A    between atoms: _417  and  _418
REMARK  185  A    between atoms: _418  and  _419
REMARK  186  A    between atoms: _419  and  _420
REMARK  187  A    between atoms: _425  and  _426
REMARK  188  A    between atoms: _431  and  _433
REMARK  189  A    between atoms: _433  and  _434
REMARK  190  A    between atoms: _433  and  _436
REMARK  191  A    between atoms: _436  and  _437
REMARK  192  A    between atoms: _437  and  _438
REMARK  193  A    between atoms: _441  and  _443
REMARK  194  A    between atoms: _443  and  _444
REMARK  195  A    between atoms: _443  and  _446
REMARK  196  A    between atoms: _446  and  _447
REMARK  197  A    between atoms: _452  and  _454
REMARK  198  A    between atoms: _454  and  _455
REMARK  199  A    between atoms: _454  and  _457
REMARK  200  A    between atoms: _457  and  _458
REMARK  201  A    between atoms: _461  and  _463
REMARK  202  A    between atoms: _463  and  _464
REMARK  203  A    between atoms: _463  and  _466
REMARK  204  A    between atoms: _466  and  _467
REMARK  205  A    between atoms: _470  and  _472
REMARK  206  A    between atoms: _472  and  _473
REMARK  207  A    between atoms: _472  and  _475
REMARK  208  A    between atoms: _475  and  _476
REMARK  209  A    between atoms: _479  and  _481
REMARK  210  A    between atoms: _481  and  _482
REMARK  211  A    between atoms: _481  and  _484
REMARK  212  A    between atoms: _484  and  _485
REMARK  213  A    between atoms: _485  and  _486
REMARK  214  A    between atoms: _491  and  _493
REMARK  215  A    between atoms: _493  and  _494
REMARK  216  A    between atoms: _493  and  _496
REMARK  217  A    between atoms: _499  and  _501
REMARK  218  A    between atoms: _501  and  _502
REMARK  219  A    between atoms: _501  and  _504
REMARK  220  A    between atoms: _504  and  _505
REMARK  221  A    between atoms: _508  and  _510
REMARK  222  A    between atoms: _510  and  _511
REMARK  223  A    between atoms: _510  and  _513
REMARK  224  A    between atoms: _513  and  _514
REMARK  225  A    between atoms: _517  and  _519
REMARK  226  A    between atoms: _519  and  _520
REMARK  227  A    between atoms: _519  and  _522
REMARK  228  A    between atoms: _522  and  _523
REMARK  229  A    between atoms: _529  and  _531
REMARK  230  A    between atoms: _531  and  _532
REMARK  231  A    between atoms: _534  and  _536
REMARK  232  A    between atoms: _536  and  _537
REMARK  233  A    between atoms: _536  and  _539
REMARK  234  A    between atoms: _539  and  _540
REMARK  235  A    between atoms: _546  and  _548
REMARK  236  A    between atoms: _548  and  _549
REMARK  237  A    between atoms: _552  and  _554
REMARK  238  A    between atoms: _554  and  _555
REMARK  239  A    between atoms: _557  and  _559
REMARK  240  A    between atoms: _559  and  _560
REMARK  241  A    between atoms: _559  and  _562
REMARK  242  A    between atoms: _562  and  _563
REMARK  243  A    between atoms: _566  and  _568
REMARK  244  A    between atoms: _568  and  _569
REMARK  245  A    between atoms: _568  and  _571
REMARK  246  A    between atoms: _571  and  _572
REMARK  247  A    between atoms: _578  and  _580
REMARK  248  A    between atoms: _580  and  _581
REMARK  249  A    between atoms: _580  and  _583
REMARK  250  A    between atoms: _583  and  _584
REMARK  251  A    between atoms: _589  and  _590
REMARK                            x       y       z     vdW  Elec       q    Type
REMARK                         _______ _______ _______ _____ _____    ______ ____
ROOT
ATOM      1  C   GLY A   1      20.554   1.553  -3.395  0.00  0.00    +0.240 C 
ATOM      2  N   THR A   2      20.167   0.721  -2.448  0.00  0.00    -0.296 N 
ATOM      3  H   THR A   2      19.446   0.004  -2.666  0.00  0.00    +0.150 HD
ATOM      4  O   GLY A   1      21.392   2.423  -3.202  0.00  0.00    -0.274 OA
ENDROOT
BRANCH   1   5
ATOM      5  CA  GLY A   1      19.915   1.351  -4.755  0.00  0.00    +0.169 C 
BRANCH   5   6
ATOM      6  N   GLY A   1      20.552   2.221  -5.737  0.00  0.00    -0.236 NA
ATOM      7  H   GLY A   1      20.652   3.233  -5.520  0.00  0.00    +0.142 HD
ENDBRANCH   5   6
ENDBRANCH   1   5
BRANCH   2   8
ATOM      8  CA  THR A   2      20.723   0.783  -1.111  0.00  0.00    +0.164 C 
BRANCH   8   9
ATOM      9  CB  THR A   2      19.563   0.828  -0.084  0.00  0.00    +0.136 C 
ATOM     10  CG2 THR A   2      20.067   0.992   1.319  0.00  0.00    +0.034 C 
BRANCH   9  11
ATOM     11  OG1 THR A   2      18.763   2.004  -0.311  0.00  0.00    -0.382 OA
ATOM     12  HG1 THR A   2      18.391   1.977  -1.228  0.00  0.00    +0.210 HD
ENDBRANCH   9  11
ENDBRANCH   8   9
BRANCH   8  13
ATOM     13  C   THR A   2      21.654  -0.410  -0.951  0.00  0.00    +0.229 C 
ATOM     14  O   THR A   2      21.311  -1.507  -1.372  0.00  0.00    -0.286 OA
ENDBRANCH   8  13
ENDBRANCH   2   8
TORSDOF 6
REMARK  Name = ../refined-set-2016/1xh5/1xh5_pocket.pdb
REMARK  251 active torsions:
REMARK  status: ('A' for Active; 'I' for Inactive)
REMARK    1  A    between atoms: _1  and  _3
REMARK    2  A    between atoms: _3  and  _4
REMARK    3  A    between atoms: _3  and  _6
REMARK    4  A    between atoms: _6  and  _7
REMARK    5  A    between atoms: _10  and  _12
REMARK    6  A    between atoms: _12  and  _13
REMARK    7  A    between atoms: _12  and  _15
REMARK    8  A    between atoms: _15  and  _16
REMARK    9  A    between atoms: _19  and  _21
REMARK   10  A    between atoms: _21  and  _22
REMARK   11  A    between atoms: _24  and  _26
REMARK   12  A    between atoms: _26  and  _27
REMARK   13  A    between atoms: _26  and  _29
REMARK   14  A    between atoms: _29  and  _30
REMARK   15  A    between atoms: _33  and  _35
REMARK   16  A    between atoms: _35  and  _36
REMARK   17  A    between atoms: _38  and  _40
REMARK   18  A    between atoms: _40  and  _41
REMARK   19  A    between atoms: _40  and  _43
REMARK   20  A    between atoms: _43  and  _44
REMARK   21  A    between atoms: _46  and  _48
REMARK   22  A    between atoms: _48  and  _49
REMARK   23  A    between atoms: _48  and  _51
REMARK   24  A    between atoms: _51  and  _52
REMARK   25  A    between atoms: _58  and  _60
REMARK   26  A    between atoms: _60  and  _61
REMARK   27  A    between atoms: _63  and  _65
REMARK   28  A    between atoms: _65  and  _66
REMARK   29  A    between atoms: _65  and  _68
REMARK   30  A    between atoms: _68  and  _69
REMARK   31  A    between atoms: _69  and  _70
REMARK   32  A    between atoms: _70  and  _71
REMARK   33  A    between atoms: _80  and  _82
REMARK   34  A    between atoms: _82  and  _83
REMARK   35  A    between atoms: _82  and  _85
REMARK   36  A    between atoms: _88  and  _90
REMARK   37  A    between atoms: _90  and  _91
REMARK   38  A    between atoms: _90  and  _93
REMARK   39  A    between atoms: _93  and  _94
REMARK   40  A    between atoms: _94  and  _95
REMARK   41  A    between atoms: _97  and  _99
REMARK   42  A    between atoms: _99  and  _100
REMARK   43  A    between atoms: _99  and  _102
REMARK   44  A    between atoms: _102  and  _103
REMARK   45  A    between atoms: _106  and  _108
REMARK   46  A    between atoms: _108  and  _109
REMARK   47  A    between atoms: _108  and  _111
REMARK   48  A    between atoms: _111  and  _112
REMARK   49  A    between atoms: _117  and  _118
REMARK   50  A    between atoms: _120  and  _122
REMARK   51  A    between atoms: _122  and  _123
REMARK   52  A    between atoms: _126  and  _128
REMARK   53  A    between atoms: _128  and  _129
REMARK   54  A    between atoms: _128  and  _131
REMARK   55  A    between atoms: _131  and  _132
REMARK   56  A    between atoms: _132  and  _133
REMARK   57  A    between atoms: _135  and  _137
REMARK   58  A    between atoms: _137  and  _138
REMARK   59  A    between atoms: _137  and  _140
REMARK   60  A    between atoms: _140  and  _141
REMARK   61  A    between atoms: _141  and  _142
REMARK   62  A    between atoms: _142  and  _143
REMARK   63  A    between atoms: _143  and  _144
REMARK   64  A    between atoms: _148  and  _150
REMARK   65  A    between atoms: _150  and  _151
REMARK   66  A    between atoms: _150  and  _153
REMARK   67  A    between atoms: _153  and  _154
REMARK   68  A    between atoms: _157  and  _159
REMARK   69  A    between atoms: _159  and  _160
REMARK   70  A    between atoms: _159  and  _162
REMARK   71  A    between atoms: _162  and  _163
REMARK   72  A    between atoms: _166  and  _168
REMARK   73  A    between atoms: _168  and  _169
REMARK   74  A    between atoms: _168  and  _171
REMARK   75  A    between atoms: _171  and  _172
REMARK   76  A    between atoms: _175  and  _177
REMARK   77  A    between atoms: _177  and  _178
REMARK   78  A    between atoms: _177  and  _180
REMARK   79  A    between atoms: _180  and  _181
REMARK   80  A    between atoms: _181  and  _182
REMARK   81  A    between atoms: _182  and  _183
REMARK   82  A    between atoms: _183  and  _184
REMARK   83  A    between atoms: _188  and  _190
REMARK   84  A    between atoms: _190  and  _191
REMARK   85  A    between atoms: _190  and  _193
REMARK   86  A    between atoms: _196  and  _198
REMARK   87  A    between atoms: _198  and  _199
REMARK   88  A    between atoms: _198  and  _201
REMARK   89  A    between atoms: _201  and  _202
REMARK   90  A    between atoms: _205  and  _207
REMARK   91  A    between atoms: _207  and  _208
REMARK   92  A    between atoms: _207  and  _210
REMARK   93  A    between atoms: _210  and  _211
REMARK   94  A    between atoms: _211  and  _212
REMARK   95  A    between atoms: _212  and  _213
REMARK   96  A    between atoms: _213  and  _214
REMARK   97  A    between atoms: _218  and  _220
REMARK   98  A    between atoms: _220  and  _221
REMARK   99  A    between atoms: _220  and  _223
REMARK  100  A    between atoms: _223  and  _224
REMARK  101  A    between atoms: _224  and  _225
REMARK  102  A    between atoms: _230  and  _232
REMARK  103  A    between atoms: _232  and  _233
REMARK  104  A    between atoms: _232  and  _235
REMARK  105  A    between atoms: _235  and  _236
REMARK  106  A    between atoms: _241  and  _243
REMARK  107  A    between atoms: _243  and  _244
REMARK  108  A    between atoms: _243  and  _246
REMARK  109  A    between atoms: _246  and  _247
REMARK  110  A    between atoms: _250  and  _252
REMARK  111  A    between atoms: _252  and  _253
REMARK  112  A    between atoms: _252  and  _255
REMARK  113  A    between atoms: _255  and  _256
REMARK  114  A    between atoms: _256  and  _257
REMARK  115  A    between atoms: _260  and  _262
REMARK  116  A    between atoms: _262  and  _263
REMARK  117  A    between atoms: _262  and  _265
REMARK  118  A    between atoms: _265  and  _266
REMARK  119  A    between atoms: _269  and  _271
REMARK  120  A    between atoms: _271  and  _272
REMARK  121  A    between atoms: _271  and  _274
REMARK  122  A    between atoms: _277  and  _279
REMARK  123  A    between atoms: _279  and  _280
REMARK  124  A    between atoms: _279  and  _282
REMARK  125  A    between atoms: _282  and  _283
REMARK  126  A    between atoms: _283  and  _284
REMARK  127  A    between atoms: _284  and  _285
REMARK  128  A    between atoms: _285  and  _286
REMARK  129  A    between atoms: _290  and  _292
REMARK  130  A    between atoms: _292  and  _293
REMARK  131  A    between atoms: _292  and  _295
REMARK  132  A    between atoms: _295  and  _296
REMARK  133  A    between atoms: _296  and  _297
REMARK  134  A    between atoms: _299  and  _301
REMARK  135  A    between atoms: _301  and  _302
REMARK  136  A    between atoms: _301  and  _304
REMARK  137  A    between atoms: _304  and  _305
REMARK  138  A    between atoms: _305  and  _306
REMARK  139  A    between atoms: _308  and  _310
REMARK  140  A    between atoms: _310  and  _311
REMARK  141  A    between atoms: _310  and  _313
REMARK  142  A    between atoms: _313  and  _314
REMARK  143  A    between atoms: _314  and  _315
REMARK  144  A    between atoms: _318  and  _320
REMARK  145  A    between atoms: _320  and  _321
REMARK  146  A    between atoms: _320  and  _323
REMARK  147  A    between atoms: _323  and  _324
REMARK  148  A    between atoms: _329  and  _330
REMARK  149  A    between atoms: _332  and  _334
REMARK  150  A    between atoms: _334  and  _335
REMARK  151  A    between atoms: _334  and  _337
REMARK  152  A    between atoms: _341  and  _342
REMARK  153  A    between atoms: _347  and  _349
REMARK  154  A    between atoms: _349  and  _350
REMARK  155  A    between atoms: _352  and  _354
REMARK  156  A    between atoms: _354  and  _355
REMARK  157  A    between atoms: _357  and  _359
REMARK  158  A    between atoms: _359  and  _360
REMARK  159  A    between atoms: _359  and  _362
REMARK  160  A    between atoms: _362  and  _363
REMARK  161  A    between atoms: _363  and  _364
REMARK  162  A    between atoms: _367  and  _369
REMARK  163  A    between atoms: _369  and  _370
REMARK  164  A    between atoms: _369  and  _372
REMARK  165  A    between atoms: _372  and  _373
REMARK  166  A    between atoms: _373  and  _374
REMARK  167  A    between atoms: _376  and  _378
REMARK  168  A    between atoms: _378  and  _379
REMARK  169  A    between atoms: _378  and  _381
REMARK  170  A    between atoms: _381  and  _382
REMARK  171  A    between atoms: _388  and  _390
REMARK  172  A    between atoms: _390  and  _391
REMARK  173  A    between atoms: _390  and  _393
REMARK  174  A    between atoms: _393  and  _394
REMARK  175  A    between atoms: _399  and  _400
REMARK  176  A    between atoms: _402  and  _404
REMARK  177  A    between atoms: _404  and  _405
REMARK  178  A    between atoms: _404  and  _407
REMARK  179  A    between atoms: _407  and  _408
REMARK  180  A    between atoms: _411  and  _413
REMARK  181  A    between atoms: _413  and  _414
REMARK  182  A    between atoms: _413  and  _416
REMARK  183  A    between atoms: _416  and  _417
REMARK  184  A    between atoms: _417  and  _418
REMARK  185  A    between atoms: _418  and  _419
REMARK  186  A    between atoms: _419  and  _420
REMARK  187  A    between atoms: _425  and  _426
REMARK  188  A    between atoms: _431  and  _433
REMARK  189  A    between atoms: _433  and  _434
REMARK  190  A    between atoms: _433  and  _436
REMARK  191  A    between atoms: _436  and  _437
REMARK  192  A    between atoms: _437  and  _438
REMARK  193  A    between atoms: _441  and  _443
REMARK  194  A    between atoms: _443  and  _444
REMARK  195  A    between atoms: _443  and  _446
REMARK  196  A    between atoms: _446  and  _447
REMARK  197  A    between atoms: _452  and  _454
REMARK  198  A    between atoms: _454  and  _455
REMARK  199  A    between atoms: _454  and  _457
REMARK  200  A    between atoms: _457  and  _458
REMARK  201  A    between atoms: _461  and  _463
REMARK  202  A    between atoms: _463  and  _464
REMARK  203  A    between atoms: _463  and  _466
REMARK  204  A    between atoms: _466  and  _467
REMARK  205  A    between atoms: _470  and  _472
REMARK  206  A    between atoms: _472  and  _473
REMARK  207  A    between atoms: _472  and  _475
REMARK  208  A    between atoms: _475  and  _476
REMARK  209  A    between atoms: _479  and  _481
REMARK  210  A    between atoms: _481  and  _482
REMARK  211  A    between atoms: _481  and  _484
REMARK  212  A    between atoms: _484  and  _485
REMARK  213  A    between atoms: _485  and  _486
REMARK  214  A    between atoms: _491  and  _493
REMARK  215  A    between atoms: _493  and  _494
REMARK  216  A    between atoms: _493  and  _496
REMARK  217  A    between atoms: _499  and  _501
REMARK  218  A    between atoms: _501  and  _502
REMARK  219  A    between atoms: _501  and  _504
REMARK  220  A    between atoms: _504  and  _505
REMARK  221  A    between atoms: _508  and  _510
REMARK  222  A    between atoms: _510  and  _511
REMARK  223  A    between atoms: _510  and  _513
REMARK  224  A    between atoms: _513  and  _514
REMARK  225  A    between atoms: _517  and  _519
REMARK  226  A    between atoms: _519  and  _520
REMARK  227  A    between atoms: _519  and  _522
REMARK  228  A    between atoms: _522  and  _523
REMARK  229  A    between atoms: _529  and  _531
REMARK  230  A    between atoms: _531  and  _532
REMARK  231  A    between atoms: _534  and  _536
REMARK  232  A    between atoms: _536  and  _537
REMARK  233  A    between atoms: _536  and  _539
REMARK  234  A    between atoms: _539  and  _540
REMARK  235  A    between atoms: _546  and  _548
REMARK  236  A    between atoms: _548  and  _549
REMARK  237  A    between atoms: _552  and  _554
REMARK  238  A    between atoms: _554  and  _555
REMARK  239  A    between atoms: _557  and  _559
REMARK  240  A    between atoms: _559  and  _560
REMARK  241  A    between atoms: _559  and  _562
REMARK  242  A    between atoms: _562  and  _563
REMARK  243  A    between atoms: _566  and  _568
REMARK  244  A    between atoms: _568  and  _569
REMARK  245  A    between atoms: _568  and  _571
REMARK  246  A    between atoms: _571  and  _572
REMARK  247  A    between atoms: _578  and  _580
REMARK  248  A    between atoms: _580  and  _581
REMARK  249  A    between atoms: _580  and  _583
REMARK  250  A    between atoms: _583  and  _584
REMARK  251  A    between atoms: _589  and  _590
REMARK                            x       y       z     vdW  Elec       q    Type
REMARK                         _______ _______ _______ _____ _____    ______ ____
ROOT
ATOM      1  CB  PHE A   1       7.037  10.442  12.051  0.00  0.00    +0.051 C 
ENDROOT
BRANCH   1   2
ATOM      2  CG  PHE A   1       6.184   9.936  10.921  0.00  0.00    -0.020 A 
ATOM      3  CD2 PHE A   1       4.809   9.838  11.071  0.00  0.00    -0.004 A 
ATOM      4  CE2 PHE A   1       4.024   9.355  10.030  0.00  0.00    -0.000 A 
ATOM      5  CZ  PHE A   1       4.617   8.940   8.845  0.00  0.00    -0.000 A 
ATOM      6  CE1 PHE A   1       6.007   9.055   8.685  0.00  0.00    -0.000 A 
ATOM      7  CD1 PHE A   1       6.776   9.533   9.719  0.00  0.00    -0.004 A 
ENDBRANCH   1   2
BRANCH   1   8
ATOM      8  CA  PHE A   1       7.517   9.335  12.976  0.00  0.00    +0.137 C 
BRANCH   8   9
ATOM      9  N   PHE A   1       6.389   8.780  13.702  0.00  0.00    -0.239 NA
ATOM     10  H   PHE A   1       5.840   9.423  14.308  0.00  0.00    +0.142 HD
ENDBRANCH   8   9
BRANCH   8  11
ATOM     11  C   PHE A   1       8.582   9.894  13.900  0.00  0.00    +0.224 C 
ATOM     12  O   PHE A   1       8.279  10.407  14.986  0.00  0.00    -0.287 OA
ENDBRANCH   8  11
ENDBRANCH   1   8
TORSDOF 4
REMARK  Name = ../refined-set-2016/1xh5/1xh5_pocket.pdb
REMARK  251 active torsions:
REMARK  status: ('A' for Active; 'I' for Inactive)
REMARK    1  A    between atoms: _1  and  _3
REMARK    2  A    between atoms: _3  and  _4
REMARK    3  A    between atoms: _3  and  _6
REMARK    4  A    between atoms: _6  and  _7
REMARK    5  A    between atoms: _10  and  _12
REMARK    6  A    between atoms: _12  and  _13
REMARK    7  A    between atoms: _12  and  _15
REMARK    8  A    between atoms: _15  and  _16
REMARK    9  A    between atoms: _19  and  _21
REMARK   10  A    between atoms: _21  and  _22
REMARK   11  A    between atoms: _24  and  _26
REMARK   12  A    between atoms: _26  and  _27
REMARK   13  A    between atoms: _26  and  _29
REMARK   14  A    between atoms: _29  and  _30
REMARK   15  A    between atoms: _33  and  _35
REMARK   16  A    between atoms: _35  and  _36
REMARK   17  A    between atoms: _38  and  _40
REMARK   18  A    between atoms: _40  and  _41
REMARK   19  A    between atoms: _40  and  _43
REMARK   20  A    between atoms: _43  and  _44
REMARK   21  A    between atoms: _46  and  _48
REMARK   22  A    between atoms: _48  and  _49
REMARK   23  A    between atoms: _48  and  _51
REMARK   24  A    between atoms: _51  and  _52
REMARK   25  A    between atoms: _58  and  _60
REMARK   26  A    between atoms: _60  and  _61
REMARK   27  A    between atoms: _63  and  _65
REMARK   28  A    between atoms: _65  and  _66
REMARK   29  A    between atoms: _65  and  _68
REMARK   30  A    between atoms: _68  and  _69
REMARK   31  A    between atoms: _69  and  _70
REMARK   32  A    between atoms: _70  and  _71
REMARK   33  A    between atoms: _80  and  _82
REMARK   34  A    between atoms: _82  and  _83
REMARK   35  A    between atoms: _82  and  _85
REMARK   36  A    between atoms: _88  and  _90
REMARK   37  A    between atoms: _90  and  _91
REMARK   38  A    between atoms: _90  and  _93
REMARK   39  A    between atoms: _93  and  _94
REMARK   40  A    between atoms: _94  and  _95
REMARK   41  A    between atoms: _97  and  _99
REMARK   42  A    between atoms: _99  and  _100
REMARK   43  A    between atoms: _99  and  _102
REMARK   44  A    between atoms: _102  and  _103
REMARK   45  A    between atoms: _106  and  _108
REMARK   46  A    between atoms: _108  and  _109
REMARK   47  A    between atoms: _108  and  _111
REMARK   48  A    between atoms: _111  and  _112
REMARK   49  A    between atoms: _117  and  _118
REMARK   50  A    between atoms: _120  and  _122
REMARK   51  A    between atoms: _122  and  _123
REMARK   52  A    between atoms: _126  and  _128
REMARK   53  A    between atoms: _128  and  _129
REMARK   54  A    between atoms: _128  and  _131
REMARK   55  A    between atoms: _131  and  _132
REMARK   56  A    between atoms: _132  and  _133
REMARK   57  A    between atoms: _135  and  _137
REMARK   58  A    between atoms: _137  and  _138
REMARK   59  A    between atoms: _137  and  _140
REMARK   60  A    between atoms: _140  and  _141
REMARK   61  A    between atoms: _141  and  _142
REMARK   62  A    between atoms: _142  and  _143
REMARK   63  A    between atoms: _143  and  _144
REMARK   64  A    between atoms: _148  and  _150
REMARK   65  A    between atoms: _150  and  _151
REMARK   66  A    between atoms: _150  and  _153
REMARK   67  A    between atoms: _153  and  _154
REMARK   68  A    between atoms: _157  and  _159
REMARK   69  A    between atoms: _159  and  _160
REMARK   70  A    between atoms: _159  and  _162
REMARK   71  A    between atoms: _162  and  _163
REMARK   72  A    between atoms: _166  and  _168
REMARK   73  A    between atoms: _168  and  _169
REMARK   74  A    between atoms: _168  and  _171
REMARK   75  A    between atoms: _171  and  _172
REMARK   76  A    between atoms: _175  and  _177
REMARK   77  A    between atoms: _177  and  _178
REMARK   78  A    between atoms: _177  and  _180
REMARK   79  A    between atoms: _180  and  _181
REMARK   80  A    between atoms: _181  and  _182
REMARK   81  A    between atoms: _182  and  _183
REMARK   82  A    between atoms: _183  and  _184
REMARK   83  A    between atoms: _188  and  _190
REMARK   84  A    between atoms: _190  and  _191
REMARK   85  A    between atoms: _190  and  _193
REMARK   86  A    between atoms: _196  and  _198
REMARK   87  A    between atoms: _198  and  _199
REMARK   88  A    between atoms: _198  and  _201
REMARK   89  A    between atoms: _201  and  _202
REMARK   90  A    between atoms: _205  and  _207
REMARK   91  A    between atoms: _207  and  _208
REMARK   92  A    between atoms: _207  and  _210
REMARK   93  A    between atoms: _210  and  _211
REMARK   94  A    between atoms: _211  and  _212
REMARK   95  A    between atoms: _212  and  _213
REMARK   96  A    between atoms: _213  and  _214
REMARK   97  A    between atoms: _218  and  _220
REMARK   98  A    between atoms: _220  and  _221
REMARK   99  A    between atoms: _220  and  _223
REMARK  100  A    between atoms: _223  and  _224
REMARK  101  A    between atoms: _224  and  _225
REMARK  102  A    between atoms: _230  and  _232
REMARK  103  A    between atoms: _232  and  _233
REMARK  104  A    between atoms: _232  and  _235
REMARK  105  A    between atoms: _235  and  _236
REMARK  106  A    between atoms: _241  and  _243
REMARK  107  A    between atoms: _243  and  _244
REMARK  108  A    between atoms: _243  and  _246
REMARK  109  A    between atoms: _246  and  _247
REMARK  110  A    between atoms: _250  and  _252
REMARK  111  A    between atoms: _252  and  _253
REMARK  112  A    between atoms: _252  and  _255
REMARK  113  A    between atoms: _255  and  _256
REMARK  114  A    between atoms: _256  and  _257
REMARK  115  A    between atoms: _260  and  _262
REMARK  116  A    between atoms: _262  and  _263
REMARK  117  A    between atoms: _262  and  _265
REMARK  118  A    between atoms: _265  and  _266
REMARK  119  A    between atoms: _269  and  _271
REMARK  120  A    between atoms: _271  and  _272
REMARK  121  A    between atoms: _271  and  _274
REMARK  122  A    between atoms: _277  and  _279
REMARK  123  A    between atoms: _279  and  _280
REMARK  124  A    between atoms: _279  and  _282
REMARK  125  A    between atoms: _282  and  _283
REMARK  126  A    between atoms: _283  and  _284
REMARK  127  A    between atoms: _284  and  _285
REMARK  128  A    between atoms: _285  and  _286
REMARK  129  A    between atoms: _290  and  _292
REMARK  130  A    between atoms: _292  and  _293
REMARK  131  A    between atoms: _292  and  _295
REMARK  132  A    between atoms: _295  and  _296
REMARK  133  A    between atoms: _296  and  _297
REMARK  134  A    between atoms: _299  and  _301
REMARK  135  A    between atoms: _301  and  _302
REMARK  136  A    between atoms: _301  and  _304
REMARK  137  A    between atoms: _304  and  _305
REMARK  138  A    between atoms: _305  and  _306
REMARK  139  A    between atoms: _308  and  _310
REMARK  140  A    between atoms: _310  and  _311
REMARK  141  A    between atoms: _310  and  _313
REMARK  142  A    between atoms: _313  and  _314
REMARK  143  A    between atoms: _314  and  _315
REMARK  144  A    between atoms: _318  and  _320
REMARK  145  A    between atoms: _320  and  _321
REMARK  146  A    between atoms: _320  and  _323
REMARK  147  A    between atoms: _323  and  _324
REMARK  148  A    between atoms: _329  and  _330
REMARK  149  A    between atoms: _332  and  _334
REMARK  150  A    between atoms: _334  and  _335
REMARK  151  A    between atoms: _334  and  _337
REMARK  152  A    between atoms: _341  and  _342
REMARK  153  A    between atoms: _347  and  _349
REMARK  154  A    between atoms: _349  and  _350
REMARK  155  A    between atoms: _352  and  _354
REMARK  156  A    between atoms: _354  and  _355
REMARK  157  A    between atoms: _357  and  _359
REMARK  158  A    between atoms: _359  and  _360
REMARK  159  A    between atoms: _359  and  _362
REMARK  160  A    between atoms: _362  and  _363
REMARK  161  A    between atoms: _363  and  _364
REMARK  162  A    between atoms: _367  and  _369
REMARK  163  A    between atoms: _369  and  _370
REMARK  164  A    between atoms: _369  and  _372
REMARK  165  A    between atoms: _372  and  _373
REMARK  166  A    between atoms: _373  and  _374
REMARK  167  A    between atoms: _376  and  _378
REMARK  168  A    between atoms: _378  and  _379
REMARK  169  A    between atoms: _378  and  _381
REMARK  170  A    between atoms: _381  and  _382
REMARK  171  A    between atoms: _388  and  _390
REMARK  172  A    between atoms: _390  and  _391
REMARK  173  A    between atoms: _390  and  _393
REMARK  174  A    between atoms: _393  and  _394
REMARK  175  A    between atoms: _399  and  _400
REMARK  176  A    between atoms: _402  and  _404
REMARK  177  A    between atoms: _404  and  _405
REMARK  178  A    between atoms: _404  and  _407
REMARK  179  A    between atoms: _407  and  _408
REMARK  180  A    between atoms: _411  and  _413
REMARK  181  A    between atoms: _413  and  _414
REMARK  182  A    between atoms: _413  and  _416
REMARK  183  A    between atoms: _416  and  _417
REMARK  184  A    between atoms: _417  and  _418
REMARK  185  A    between atoms: _418  and  _419
REMARK  186  A    between atoms: _419  and  _420
REMARK  187  A    between atoms: _425  and  _426
REMARK  188  A    between atoms: _431  and  _433
REMARK  189  A    between atoms: _433  and  _434
REMARK  190  A    between atoms: _433  and  _436
REMARK  191  A    between atoms: _436  and  _437
REMARK  192  A    between atoms: _437  and  _438
REMARK  193  A    between atoms: _441  and  _443
REMARK  194  A    between atoms: _443  and  _444
REMARK  195  A    between atoms: _443  and  _446
REMARK  196  A    between atoms: _446  and  _447
REMARK  197  A    between atoms: _452  and  _454
REMARK  198  A    between atoms: _454  and  _455
REMARK  199  A    between atoms: _454  and  _457
REMARK  200  A    between atoms: _457  and  _458
REMARK  201  A    between atoms: _461  and  _463
REMARK  202  A    between atoms: _463  and  _464
REMARK  203  A    between atoms: _463  and  _466
REMARK  204  A    between atoms: _466  and  _467
REMARK  205  A    between atoms: _470  and  _472
REMARK  206  A    between atoms: _472  and  _473
REMARK  207  A    between atoms: _472  and  _475
REMARK  208  A    between atoms: _475  and  _476
REMARK  209  A    between atoms: _479  and  _481
REMARK  210  A    between atoms: _481  and  _482
REMARK  211  A    between atoms: _481  and  _484
REMARK  212  A    between atoms: _484  and  _485
REMARK  213  A    between atoms: _485  and  _486
REMARK  214  A    between atoms: _491  and  _493
REMARK  215  A    between atoms: _493  and  _494
REMARK  216  A    between atoms: _493  and  _496
REMARK  217  A    between atoms: _499  and  _501
REMARK  218  A    between atoms: _501  and  _502
REMARK  219  A    between atoms: _501  and  _504
REMARK  220  A    between atoms: _504  and  _505
REMARK  221  A    between atoms: _508  and  _510
REMARK  222  A    between atoms: _510  and  _511
REMARK  223  A    between atoms: _510  and  _513
REMARK  224  A    between atoms: _513  and  _514
REMARK  225  A    between atoms: _517  and  _519
REMARK  226  A    between atoms: _519  and  _520
REMARK  227  A    between atoms: _519  and  _522
REMARK  228  A    between atoms: _522  and  _523
REMARK  229  A    between atoms: _529  and  _531
REMARK  230  A    between atoms: _531  and  _532
REMARK  231  A    between atoms: _534  and  _536
REMARK  232  A    between atoms: _536  and  _537
REMARK  233  A    between atoms: _536  and  _539
REMARK  234  A    between atoms: _539  and  _540
REMARK  235  A    between atoms: _546  and  _548
REMARK  236  A    between atoms: _548  and  _549
REMARK  237  A    between atoms: _552  and  _554
REMARK  238  A    between atoms: _554  and  _555
REMARK  239  A    between atoms: _557  and  _559
REMARK  240  A    between atoms: _559  and  _560
REMARK  241  A    between atoms: _559  and  _562
REMARK  242  A    between atoms: _562  and  _563
REMARK  243  A    between atoms: _566  and  _568
REMARK  244  A    between atoms: _568  and  _569
REMARK  245  A    between atoms: _568  and  _571
REMARK  246  A    between atoms: _571  and  _572
REMARK  247  A    between atoms: _578  and  _580
REMARK  248  A    between atoms: _580  and  _581
REMARK  249  A    between atoms: _580  and  _583
REMARK  250  A    between atoms: _583  and  _584
REMARK  251  A    between atoms: _589  and  _590
REMARK                            x       y       z     vdW  Elec       q    Type
REMARK                         _______ _______ _______ _____ _____    ______ ____
ROOT
ATOM      1  CG  TYR A   1      13.488  14.376  10.369  0.00  0.00    -0.020 A 
ATOM      2  CD2 TYR A   1      12.380  13.541  10.520  0.00  0.00    -0.001 A 
ATOM      3  CE2 TYR A   1      12.431  12.188  10.139  0.00  0.00    +0.036 A 
ATOM      4  CZ  TYR A   1      13.595  11.667   9.588  0.00  0.00    +0.134 A 
ATOM      5  CE1 TYR A   1      14.715  12.468   9.434  0.00  0.00    +0.036 A 
ATOM      6  CD1 TYR A   1      14.656  13.828   9.811  0.00  0.00    -0.001 A 
ENDROOT
BRANCH   4   7
ATOM      7  OH  TYR A   1      13.620  10.350   9.209  0.00  0.00    -0.506 OA
ATOM      8  HH  TYR A   1      12.738   9.938   9.392  0.00  0.00    +0.292 HD
ENDBRANCH   4   7
BRANCH   1   9
ATOM      9  CB  TYR A   1      13.429  15.828  10.775  0.00  0.00    +0.051 C 
BRANCH   9  10
ATOM     10  CA  TYR A   1      13.716  16.124  12.262  0.00  0.00    +0.137 C 
BRANCH  10  11
ATOM     11  N   TYR A   1      12.631  15.624  13.084  0.00  0.00    -0.239 NA
ATOM     12  H   TYR A   1      11.697  16.074  13.006  0.00  0.00    +0.142 HD
ENDBRANCH  10  11
BRANCH  10  13
ATOM     13  C   TYR A   1      13.816  17.631  12.445  0.00  0.00    +0.224 C 
ATOM     14  O   TYR A   1      12.822  18.260  12.767  0.00  0.00    -0.287 OA
ENDBRANCH  10  13
ENDBRANCH   9  10
ENDBRANCH   1   9
TORSDOF 5
REMARK  Name = ../refined-set-2016/1xh5/1xh5_pocket.pdb
REMARK  251 active torsions:
REMARK  status: ('A' for Active; 'I' for Inactive)
REMARK    1  A    between atoms: _1  and  _3
REMARK    2  A    between atoms: _3  and  _4
REMARK    3  A    between atoms: _3  and  _6
REMARK    4  A    between atoms: _6  and  _7
REMARK    5  A    between atoms: _10  and  _12
REMARK    6  A    between atoms: _12  and  _13
REMARK    7  A    between atoms: _12  and  _15
REMARK    8  A    between atoms: _15  and  _16
REMARK    9  A    between atoms: _19  and  _21
REMARK   10  A    between atoms: _21  and  _22
REMARK   11  A    between atoms: _24  and  _26
REMARK   12  A    between atoms: _26  and  _27
REMARK   13  A    between atoms: _26  and  _29
REMARK   14  A    between atoms: _29  and  _30
REMARK   15  A    between atoms: _33  and  _35
REMARK   16  A    between atoms: _35  and  _36
REMARK   17  A    between atoms: _38  and  _40
REMARK   18  A    between atoms: _40  and  _41
REMARK   19  A    between atoms: _40  and  _43
REMARK   20  A    between atoms: _43  and  _44
REMARK   21  A    between atoms: _46  and  _48
REMARK   22  A    between atoms: _48  and  _49
REMARK   23  A    between atoms: _48  and  _51
REMARK   24  A    between atoms: _51  and  _52
REMARK   25  A    between atoms: _58  and  _60
REMARK   26  A    between atoms: _60  and  _61
REMARK   27  A    between atoms: _63  and  _65
REMARK   28  A    between atoms: _65  and  _66
REMARK   29  A    between atoms: _65  and  _68
REMARK   30  A    between atoms: _68  and  _69
REMARK   31  A    between atoms: _69  and  _70
REMARK   32  A    between atoms: _70  and  _71
REMARK   33  A    between atoms: _80  and  _82
REMARK   34  A    between atoms: _82  and  _83
REMARK   35  A    between atoms: _82  and  _85
REMARK   36  A    between atoms: _88  and  _90
REMARK   37  A    between atoms: _90  and  _91
REMARK   38  A    between atoms: _90  and  _93
REMARK   39  A    between atoms: _93  and  _94
REMARK   40  A    between atoms: _94  and  _95
REMARK   41  A    between atoms: _97  and  _99
REMARK   42  A    between atoms: _99  and  _100
REMARK   43  A    between atoms: _99  and  _102
REMARK   44  A    between atoms: _102  and  _103
REMARK   45  A    between atoms: _106  and  _108
REMARK   46  A    between atoms: _108  and  _109
REMARK   47  A    between atoms: _108  and  _111
REMARK   48  A    between atoms: _111  and  _112
REMARK   49  A    between atoms: _117  and  _118
REMARK   50  A    between atoms: _120  and  _122
REMARK   51  A    between atoms: _122  and  _123
REMARK   52  A    between atoms: _126  and  _128
REMARK   53  A    between atoms: _128  and  _129
REMARK   54  A    between atoms: _128  and  _131
REMARK   55  A    between atoms: _131  and  _132
REMARK   56  A    between atoms: _132  and  _133
REMARK   57  A    between atoms: _135  and  _137
REMARK   58  A    between atoms: _137  and  _138
REMARK   59  A    between atoms: _137  and  _140
REMARK   60  A    between atoms: _140  and  _141
REMARK   61  A    between atoms: _141  and  _142
REMARK   62  A    between atoms: _142  and  _143
REMARK   63  A    between atoms: _143  and  _144
REMARK   64  A    between atoms: _148  and  _150
REMARK   65  A    between atoms: _150  and  _151
REMARK   66  A    between atoms: _150  and  _153
REMARK   67  A    between atoms: _153  and  _154
REMARK   68  A    between atoms: _157  and  _159
REMARK   69  A    between atoms: _159  and  _160
REMARK   70  A    between atoms: _159  and  _162
REMARK   71  A    between atoms: _162  and  _163
REMARK   72  A    between atoms: _166  and  _168
REMARK   73  A    between atoms: _168  and  _169
REMARK   74  A    between atoms: _168  and  _171
REMARK   75  A    between atoms: _171  and  _172
REMARK   76  A    between atoms: _175  and  _177
REMARK   77  A    between atoms: _177  and  _178
REMARK   78  A    between atoms: _177  and  _180
REMARK   79  A    between atoms: _180  and  _181
REMARK   80  A    between atoms: _181  and  _182
REMARK   81  A    between atoms: _182  and  _183
REMARK   82  A    between atoms: _183  and  _184
REMARK   83  A    between atoms: _188  and  _190
REMARK   84  A    between atoms: _190  and  _191
REMARK   85  A    between atoms: _190  and  _193
REMARK   86  A    between atoms: _196  and  _198
REMARK   87  A    between atoms: _198  and  _199
REMARK   88  A    between atoms: _198  and  _201
REMARK   89  A    between atoms: _201  and  _202
REMARK   90  A    between atoms: _205  and  _207
REMARK   91  A    between atoms: _207  and  _208
REMARK   92  A    between atoms: _207  and  _210
REMARK   93  A    between atoms: _210  and  _211
REMARK   94  A    between atoms: _211  and  _212
REMARK   95  A    between atoms: _212  and  _213
REMARK   96  A    between atoms: _213  and  _214
REMARK   97  A    between atoms: _218  and  _220
REMARK   98  A    between atoms: _220  and  _221
REMARK   99  A    between atoms: _220  and  _223
REMARK  100  A    between atoms: _223  and  _224
REMARK  101  A    between atoms: _224  and  _225
REMARK  102  A    between atoms: _230  and  _232
REMARK  103  A    between atoms: _232  and  _233
REMARK  104  A    between atoms: _232  and  _235
REMARK  105  A    between atoms: _235  and  _236
REMARK  106  A    between atoms: _241  and  _243
REMARK  107  A    between atoms: _243  and  _244
REMARK  108  A    between atoms: _243  and  _246
REMARK  109  A    between atoms: _246  and  _247
REMARK  110  A    between atoms: _250  and  _252
REMARK  111  A    between atoms: _252  and  _253
REMARK  112  A    between atoms: _252  and  _255
REMARK  113  A    between atoms: _255  and  _256
REMARK  114  A    between atoms: _256  and  _257
REMARK  115  A    between atoms: _260  and  _262
REMARK  116  A    between atoms: _262  and  _263
REMARK  117  A    between atoms: _262  and  _265
REMARK  118  A    between atoms: _265  and  _266
REMARK  119  A    between atoms: _269  and  _271
REMARK  120  A    between atoms: _271  and  _272
REMARK  121  A    between atoms: _271  and  _274
REMARK  122  A    between atoms: _277  and  _279
REMARK  123  A    between atoms: _279  and  _280
REMARK  124  A    between atoms: _279  and  _282
REMARK  125  A    between atoms: _282  and  _283
REMARK  126  A    between atoms: _283  and  _284
REMARK  127  A    between atoms: _284  and  _285
REMARK  128  A    between atoms: _285  and  _286
REMARK  129  A    between atoms: _290  and  _292
REMARK  130  A    between atoms: _292  and  _293
REMARK  131  A    between atoms: _292  and  _295
REMARK  132  A    between atoms: _295  and  _296
REMARK  133  A    between atoms: _296  and  _297
REMARK  134  A    between atoms: _299  and  _301
REMARK  135  A    between atoms: _301  and  _302
REMARK  136  A    between atoms: _301  and  _304
REMARK  137  A    between atoms: _304  and  _305
REMARK  138  A    between atoms: _305  and  _306
REMARK  139  A    between atoms: _308  and  _310
REMARK  140  A    between atoms: _310  and  _311
REMARK  141  A    between atoms: _310  and  _313
REMARK  142  A    between atoms: _313  and  _314
REMARK  143  A    between atoms: _314  and  _315
REMARK  144  A    between atoms: _318  and  _320
REMARK  145  A    between atoms: _320  and  _321
REMARK  146  A    between atoms: _320  and  _323
REMARK  147  A    between atoms: _323  and  _324
REMARK  148  A    between atoms: _329  and  _330
REMARK  149  A    between atoms: _332  and  _334
REMARK  150  A    between atoms: _334  and  _335
REMARK  151  A    between atoms: _334  and  _337
REMARK  152  A    between atoms: _341  and  _342
REMARK  153  A    between atoms: _347  and  _349
REMARK  154  A    between atoms: _349  and  _350
REMARK  155  A    between atoms: _352  and  _354
REMARK  156  A    between atoms: _354  and  _355
REMARK  157  A    between atoms: _357  and  _359
REMARK  158  A    between atoms: _359  and  _360
REMARK  159  A    between atoms: _359  and  _362
REMARK  160  A    between atoms: _362  and  _363
REMARK  161  A    between atoms: _363  and  _364
REMARK  162  A    between atoms: _367  and  _369
REMARK  163  A    between atoms: _369  and  _370
REMARK  164  A    between atoms: _369  and  _372
REMARK  165  A    between atoms: _372  and  _373
REMARK  166  A    between atoms: _373  and  _374
REMARK  167  A    between atoms: _376  and  _378
REMARK  168  A    between atoms: _378  and  _379
REMARK  169  A    between atoms: _378  and  _381
REMARK  170  A    between atoms: _381  and  _382
REMARK  171  A    between atoms: _388  and  _390
REMARK  172  A    between atoms: _390  and  _391
REMARK  173  A    between atoms: _390  and  _393
REMARK  174  A    between atoms: _393  and  _394
REMARK  175  A    between atoms: _399  and  _400
REMARK  176  A    between atoms: _402  and  _404
REMARK  177  A    between atoms: _404  and  _405
REMARK  178  A    between atoms: _404  and  _407
REMARK  179  A    between atoms: _407  and  _408
REMARK  180  A    between atoms: _411  and  _413
REMARK  181  A    between atoms: _413  and  _414
REMARK  182  A    between atoms: _413  and  _416
REMARK  183  A    between atoms: _416  and  _417
REMARK  184  A    between atoms: _417  and  _418
REMARK  185  A    between atoms: _418  and  _419
REMARK  186  A    between atoms: _419  and  _420
REMARK  187  A    between atoms: _425  and  _426
REMARK  188  A    between atoms: _431  and  _433
REMARK  189  A    between atoms: _433  and  _434
REMARK  190  A    between atoms: _433  and  _436
REMARK  191  A    between atoms: _436  and  _437
REMARK  192  A    between atoms: _437  and  _438
REMARK  193  A    between atoms: _441  and  _443
REMARK  194  A    between atoms: _443  and  _444
REMARK  195  A    between atoms: _443  and  _446
REMARK  196  A    between atoms: _446  and  _447
REMARK  197  A    between atoms: _452  and  _454
REMARK  198  A    between atoms: _454  and  _455
REMARK  199  A    between atoms: _454  and  _457
REMARK  200  A    between atoms: _457  and  _458
REMARK  201  A    between atoms: _461  and  _463
REMARK  202  A    between atoms: _463  and  _464
REMARK  203  A    between atoms: _463  and  _466
REMARK  204  A    between atoms: _466  and  _467
REMARK  205  A    between atoms: _470  and  _472
REMARK  206  A    between atoms: _472  and  _473
REMARK  207  A    between atoms: _472  and  _475
REMARK  208  A    between atoms: _475  and  _476
REMARK  209  A    between atoms: _479  and  _481
REMARK  210  A    between atoms: _481  and  _482
REMARK  211  A    between atoms: _481  and  _484
REMARK  212  A    between atoms: _484  and  _485
REMARK  213  A    between atoms: _485  and  _486
REMARK  214  A    between atoms: _491  and  _493
REMARK  215  A    between atoms: _493  and  _494
REMARK  216  A    between atoms: _493  and  _496
REMARK  217  A    between atoms: _499  and  _501
REMARK  218  A    between atoms: _501  and  _502
REMARK  219  A    between atoms: _501  and  _504
REMARK  220  A    between atoms: _504  and  _505
REMARK  221  A    between atoms: _508  and  _510
REMARK  222  A    between atoms: _510  and  _511
REMARK  223  A    between atoms: _510  and  _513
REMARK  224  A    between atoms: _513  and  _514
REMARK  225  A    between atoms: _517  and  _519
REMARK  226  A    between atoms: _519  and  _520
REMARK  227  A    between atoms: _519  and  _522
REMARK  228  A    between atoms: _522  and  _523
REMARK  229  A    between atoms: _529  and  _531
REMARK  230  A    between atoms: _531  and  _532
REMARK  231  A    between atoms: _534  and  _536
REMARK  232  A    between atoms: _536  and  _537
REMARK  233  A    between atoms: _536  and  _539
REMARK  234  A    between atoms: _539  and  _540
REMARK  235  A    between atoms: _546  and  _548
REMARK  236  A    between atoms: _548  and  _549
REMARK  237  A    between atoms: _552  and  _554
REMARK  238  A    between atoms: _554  and  _555
REMARK  239  A    between atoms: _557  and  _559
REMARK  240  A    between atoms: _559  and  _560
REMARK  241  A    between atoms: _559  and  _562
REMARK  242  A    between atoms: _562  and  _563
REMARK  243  A    between atoms: _566  and  _568
REMARK  244  A    between atoms: _568  and  _569
REMARK  245  A    between atoms: _568  and  _571
REMARK  246  A    between atoms: _571  and  _572
REMARK  247  A    between atoms: _578  and  _580
REMARK  248  A    between atoms: _580  and  _581
REMARK  249  A    between atoms: _580  and  _583
REMARK  250  A    between atoms: _583  and  _584
REMARK  251  A    between atoms: _589  and  _590
REMARK                            x       y       z     vdW  Elec       q    Type
REMARK                         _______ _______ _______ _____ _____    ______ ____
ROOT
ATOM      1  O   HOH     1       8.511   6.130  11.033  0.00  0.00    +0.000 OA
ENDROOT
TORSDOF 0
REMARK  Name = ../refined-set-2016/1xh5/1xh5_pocket.pdb
REMARK  251 active torsions:
REMARK  status: ('A' for Active; 'I' for Inactive)
REMARK    1  A    between atoms: _1  and  _3
REMARK    2  A    between atoms: _3  and  _4
REMARK    3  A    between atoms: _3  and  _6
REMARK    4  A    between atoms: _6  and  _7
REMARK    5  A    between atoms: _10  and  _12
REMARK    6  A    between atoms: _12  and  _13
REMARK    7  A    between atoms: _12  and  _15
REMARK    8  A    between atoms: _15  and  _16
REMARK    9  A    between atoms: _19  and  _21
REMARK   10  A    between atoms: _21  and  _22
REMARK   11  A    between atoms: _24  and  _26
REMARK   12  A    between atoms: _26  and  _27
REMARK   13  A    between atoms: _26  and  _29
REMARK   14  A    between atoms: _29  and  _30
REMARK   15  A    between atoms: _33  and  _35
REMARK   16  A    between atoms: _35  and  _36
REMARK   17  A    between atoms: _38  and  _40
REMARK   18  A    between atoms: _40  and  _41
REMARK   19  A    between atoms: _40  and  _43
REMARK   20  A    between atoms: _43  and  _44
REMARK   21  A    between atoms: _46  and  _48
REMARK   22  A    between atoms: _48  and  _49
REMARK   23  A    between atoms: _48  and  _51
REMARK   24  A    between atoms: _51  and  _52
REMARK   25  A    between atoms: _58  and  _60
REMARK   26  A    between atoms: _60  and  _61
REMARK   27  A    between atoms: _63  and  _65
REMARK   28  A    between atoms: _65  and  _66
REMARK   29  A    between atoms: _65  and  _68
REMARK   30  A    between atoms: _68  and  _69
REMARK   31  A    between atoms: _69  and  _70
REMARK   32  A    between atoms: _70  and  _71
REMARK   33  A    between atoms: _80  and  _82
REMARK   34  A    between atoms: _82  and  _83
REMARK   35  A    between atoms: _82  and  _85
REMARK   36  A    between atoms: _88  and  _90
REMARK   37  A    between atoms: _90  and  _91
REMARK   38  A    between atoms: _90  and  _93
REMARK   39  A    between atoms: _93  and  _94
REMARK   40  A    between atoms: _94  and  _95
REMARK   41  A    between atoms: _97  and  _99
REMARK   42  A    between atoms: _99  and  _100
REMARK   43  A    between atoms: _99  and  _102
REMARK   44  A    between atoms: _102  and  _103
REMARK   45  A    between atoms: _106  and  _108
REMARK   46  A    between atoms: _108  and  _109
REMARK   47  A    between atoms: _108  and  _111
REMARK   48  A    between atoms: _111  and  _112
REMARK   49  A    between atoms: _117  and  _118
REMARK   50  A    between atoms: _120  and  _122
REMARK   51  A    between atoms: _122  and  _123
REMARK   52  A    between atoms: _126  and  _128
REMARK   53  A    between atoms: _128  and  _129
REMARK   54  A    between atoms: _128  and  _131
REMARK   55  A    between atoms: _131  and  _132
REMARK   56  A    between atoms: _132  and  _133
REMARK   57  A    between atoms: _135  and  _137
REMARK   58  A    between atoms: _137  and  _138
REMARK   59  A    between atoms: _137  and  _140
REMARK   60  A    between atoms: _140  and  _141
REMARK   61  A    between atoms: _141  and  _142
REMARK   62  A    between atoms: _142  and  _143
REMARK   63  A    between atoms: _143  and  _144
REMARK   64  A    between atoms: _148  and  _150
REMARK   65  A    between atoms: _150  and  _151
REMARK   66  A    between atoms: _150  and  _153
REMARK   67  A    between atoms: _153  and  _154
REMARK   68  A    between atoms: _157  and  _159
REMARK   69  A    between atoms: _159  and  _160
REMARK   70  A    between atoms: _159  and  _162
REMARK   71  A    between atoms: _162  and  _163
REMARK   72  A    between atoms: _166  and  _168
REMARK   73  A    between atoms: _168  and  _169
REMARK   74  A    between atoms: _168  and  _171
REMARK   75  A    between atoms: _171  and  _172
REMARK   76  A    between atoms: _175  and  _177
REMARK   77  A    between atoms: _177  and  _178
REMARK   78  A    between atoms: _177  and  _180
REMARK   79  A    between atoms: _180  and  _181
REMARK   80  A    between atoms: _181  and  _182
REMARK   81  A    between atoms: _182  and  _183
REMARK   82  A    between atoms: _183  and  _184
REMARK   83  A    between atoms: _188  and  _190
REMARK   84  A    between atoms: _190  and  _191
REMARK   85  A    between atoms: _190  and  _193
REMARK   86  A    between atoms: _196  and  _198
REMARK   87  A    between atoms: _198  and  _199
REMARK   88  A    between atoms: _198  and  _201
REMARK   89  A    between atoms: _201  and  _202
REMARK   90  A    between atoms: _205  and  _207
REMARK   91  A    between atoms: _207  and  _208
REMARK   92  A    between atoms: _207  and  _210
REMARK   93  A    between atoms: _210  and  _211
REMARK   94  A    between atoms: _211  and  _212
REMARK   95  A    between atoms: _212  and  _213
REMARK   96  A    between atoms: _213  and  _214
REMARK   97  A    between atoms: _218  and  _220
REMARK   98  A    between atoms: _220  and  _221
REMARK   99  A    between atoms: _220  and  _223
REMARK  100  A    between atoms: _223  and  _224
REMARK  101  A    between atoms: _224  and  _225
REMARK  102  A    between atoms: _230  and  _232
REMARK  103  A    between atoms: _232  and  _233
REMARK  104  A    between atoms: _232  and  _235
REMARK  105  A    between atoms: _235  and  _236
REMARK  106  A    between atoms: _241  and  _243
REMARK  107  A    between atoms: _243  and  _244
REMARK  108  A    between atoms: _243  and  _246
REMARK  109  A    between atoms: _246  and  _247
REMARK  110  A    between atoms: _250  and  _252
REMARK  111  A    between atoms: _252  and  _253
REMARK  112  A    between atoms: _252  and  _255
REMARK  113  A    between atoms: _255  and  _256
REMARK  114  A    between atoms: _256  and  _257
REMARK  115  A    between atoms: _260  and  _262
REMARK  116  A    between atoms: _262  and  _263
REMARK  117  A    between atoms: _262  and  _265
REMARK  118  A    between atoms: _265  and  _266
REMARK  119  A    between atoms: _269  and  _271
REMARK  120  A    between atoms: _271  and  _272
REMARK  121  A    between atoms: _271  and  _274
REMARK  122  A    between atoms: _277  and  _279
REMARK  123  A    between atoms: _279  and  _280
REMARK  124  A    between atoms: _279  and  _282
REMARK  125  A    between atoms: _282  and  _283
REMARK  126  A    between atoms: _283  and  _284
REMARK  127  A    between atoms: _284  and  _285
REMARK  128  A    between atoms: _285  and  _286
REMARK  129  A    between atoms: _290  and  _292
REMARK  130  A    between atoms: _292  and  _293
REMARK  131  A    between atoms: _292  and  _295
REMARK  132  A    between atoms: _295  and  _296
REMARK  133  A    between atoms: _296  and  _297
REMARK  134  A    between atoms: _299  and  _301
REMARK  135  A    between atoms: _301  and  _302
REMARK  136  A    between atoms: _301  and  _304
REMARK  137  A    between atoms: _304  and  _305
REMARK  138  A    between atoms: _305  and  _306
REMARK  139  A    between atoms: _308  and  _310
REMARK  140  A    between atoms: _310  and  _311
REMARK  141  A    between atoms: _310  and  _313
REMARK  142  A    between atoms: _313  and  _314
REMARK  143  A    between atoms: _314  and  _315
REMARK  144  A    between atoms: _318  and  _320
REMARK  145  A    between atoms: _320  and  _321
REMARK  146  A    between atoms: _320  and  _323
REMARK  147  A    between atoms: _323  and  _324
REMARK  148  A    between atoms: _329  and  _330
REMARK  149  A    between atoms: _332  and  _334
REMARK  150  A    between atoms: _334  and  _335
REMARK  151  A    between atoms: _334  and  _337
REMARK  152  A    between atoms: _341  and  _342
REMARK  153  A    between atoms: _347  and  _349
REMARK  154  A    between atoms: _349  and  _350
REMARK  155  A    between atoms: _352  and  _354
REMARK  156  A    between atoms: _354  and  _355
REMARK  157  A    between atoms: _357  and  _359
REMARK  158  A    between atoms: _359  and  _360
REMARK  159  A    between atoms: _359  and  _362
REMARK  160  A    between atoms: _362  and  _363
REMARK  161  A    between atoms: _363  and  _364
REMARK  162  A    between atoms: _367  and  _369
REMARK  163  A    between atoms: _369  and  _370
REMARK  164  A    between atoms: _369  and  _372
REMARK  165  A    between atoms: _372  and  _373
REMARK  166  A    between atoms: _373  and  _374
REMARK  167  A    between atoms: _376  and  _378
REMARK  168  A    between atoms: _378  and  _379
REMARK  169  A    between atoms: _378  and  _381
REMARK  170  A    between atoms: _381  and  _382
REMARK  171  A    between atoms: _388  and  _390
REMARK  172  A    between atoms: _390  and  _391
REMARK  173  A    between atoms: _390  and  _393
REMARK  174  A    between atoms: _393  and  _394
REMARK  175  A    between atoms: _399  and  _400
REMARK  176  A    between atoms: _402  and  _404
REMARK  177  A    between atoms: _404  and  _405
REMARK  178  A    between atoms: _404  and  _407
REMARK  179  A    between atoms: _407  and  _408
REMARK  180  A    between atoms: _411  and  _413
REMARK  181  A    between atoms: _413  and  _414
REMARK  182  A    between atoms: _413  and  _416
REMARK  183  A    between atoms: _416  and  _417
REMARK  184  A    between atoms: _417  and  _418
REMARK  185  A    between atoms: _418  and  _419
REMARK  186  A    between atoms: _419  and  _420
REMARK  187  A    between atoms: _425  and  _426
REMARK  188  A    between atoms: _431  and  _433
REMARK  189  A    between atoms: _433  and  _434
REMARK  190  A    between atoms: _433  and  _436
REMARK  191  A    between atoms: _436  and  _437
REMARK  192  A    between atoms: _437  and  _438
REMARK  193  A    between atoms: _441  and  _443
REMARK  194  A    between atoms: _443  and  _444
REMARK  195  A    between atoms: _443  and  _446
REMARK  196  A    between atoms: _446  and  _447
REMARK  197  A    between atoms: _452  and  _454
REMARK  198  A    between atoms: _454  and  _455
REMARK  199  A    between atoms: _454  and  _457
REMARK  200  A    between atoms: _457  and  _458
REMARK  201  A    between atoms: _461  and  _463
REMARK  202  A    between atoms: _463  and  _464
REMARK  203  A    between atoms: _463  and  _466
REMARK  204  A    between atoms: _466  and  _467
REMARK  205  A    between atoms: _470  and  _472
REMARK  206  A    between atoms: _472  and  _473
REMARK  207  A    between atoms: _472  and  _475
REMARK  208  A    between atoms: _475  and  _476
REMARK  209  A    between atoms: _479  and  _481
REMARK  210  A    between atoms: _481  and  _482
REMARK  211  A    between atoms: _481  and  _484
REMARK  212  A    between atoms: _484  and  _485
REMARK  213  A    between atoms: _485  and  _486
REMARK  214  A    between atoms: _491  and  _493
REMARK  215  A    between atoms: _493  and  _494
REMARK  216  A    between atoms: _493  and  _496
REMARK  217  A    between atoms: _499  and  _501
REMARK  218  A    between atoms: _501  and  _502
REMARK  219  A    between atoms: _501  and  _504
REMARK  220  A    between atoms: _504  and  _505
REMARK  221  A    between atoms: _508  and  _510
REMARK  222  A    between atoms: _510  and  _511
REMARK  223  A    between atoms: _510  and  _513
REMARK  224  A    between atoms: _513  and  _514
REMARK  225  A    between atoms: _517  and  _519
REMARK  226  A    between atoms: _519  and  _520
REMARK  227  A    between atoms: _519  and  _522
REMARK  228  A    between atoms: _522  and  _523
REMARK  229  A    between atoms: _529  and  _531
REMARK  230  A    between atoms: _531  and  _532
REMARK  231  A    between atoms: _534  and  _536
REMARK  232  A    between atoms: _536  and  _537
REMARK  233  A    between atoms: _536  and  _539
REMARK  234  A    between atoms: _539  and  _540
REMARK  235  A    between atoms: _546  and  _548
REMARK  236  A    between atoms: _548  and  _549
REMARK  237  A    between atoms: _552  and  _554
REMARK  238  A    between atoms: _554  and  _555
REMARK  239  A    between atoms: _557  and  _559
REMARK  240  A    between atoms: _559  and  _560
REMARK  241  A    between atoms: _559  and  _562
REMARK  242  A    between atoms: _562  and  _563
REMARK  243  A    between atoms: _566  and  _568
REMARK  244  A    between atoms: _568  and  _569
REMARK  245  A    between atoms: _568  and  _571
REMARK  246  A    between atoms: _571  and  _572
REMARK  247  A    between atoms: _578  and  _580
REMARK  248  A    between atoms: _580  and  _581
REMARK  249  A    between atoms: _580  and  _583
REMARK  250  A    between atoms: _583  and  _584
REMARK  251  A    between atoms: _589  and  _590
REMARK                            x       y       z     vdW  Elec       q    Type
REMARK                         _______ _______ _______ _____ _____    ______ ____
ROOT
ATOM      1  O   HOH     1      12.765   4.321  -6.278  0.00  0.00    +0.000 OA
ENDROOT
TORSDOF 0
REMARK  Name = ../refined-set-2016/1xh5/1xh5_pocket.pdb
REMARK  251 active torsions:
REMARK  status: ('A' for Active; 'I' for Inactive)
REMARK    1  A    between atoms: _1  and  _3
REMARK    2  A    between atoms: _3  and  _4
REMARK    3  A    between atoms: _3  and  _6
REMARK    4  A    between atoms: _6  and  _7
REMARK    5  A    between atoms: _10  and  _12
REMARK    6  A    between atoms: _12  and  _13
REMARK    7  A    between atoms: _12  and  _15
REMARK    8  A    between atoms: _15  and  _16
REMARK    9  A    between atoms: _19  and  _21
REMARK   10  A    between atoms: _21  and  _22
REMARK   11  A    between atoms: _24  and  _26
REMARK   12  A    between atoms: _26  and  _27
REMARK   13  A    between atoms: _26  and  _29
REMARK   14  A    between atoms: _29  and  _30
REMARK   15  A    between atoms: _33  and  _35
REMARK   16  A    between atoms: _35  and  _36
REMARK   17  A    between atoms: _38  and  _40
REMARK   18  A    between atoms: _40  and  _41
REMARK   19  A    between atoms: _40  and  _43
REMARK   20  A    between atoms: _43  and  _44
REMARK   21  A    between atoms: _46  and  _48
REMARK   22  A    between atoms: _48  and  _49
REMARK   23  A    between atoms: _48  and  _51
REMARK   24  A    between atoms: _51  and  _52
REMARK   25  A    between atoms: _58  and  _60
REMARK   26  A    between atoms: _60  and  _61
REMARK   27  A    between atoms: _63  and  _65
REMARK   28  A    between atoms: _65  and  _66
REMARK   29  A    between atoms: _65  and  _68
REMARK   30  A    between atoms: _68  and  _69
REMARK   31  A    between atoms: _69  and  _70
REMARK   32  A    between atoms: _70  and  _71
REMARK   33  A    between atoms: _80  and  _82
REMARK   34  A    between atoms: _82  and  _83
REMARK   35  A    between atoms: _82  and  _85
REMARK   36  A    between atoms: _88  and  _90
REMARK   37  A    between atoms: _90  and  _91
REMARK   38  A    between atoms: _90  and  _93
REMARK   39  A    between atoms: _93  and  _94
REMARK   40  A    between atoms: _94  and  _95
REMARK   41  A    between atoms: _97  and  _99
REMARK   42  A    between atoms: _99  and  _100
REMARK   43  A    between atoms: _99  and  _102
REMARK   44  A    between atoms: _102  and  _103
REMARK   45  A    between atoms: _106  and  _108
REMARK   46  A    between atoms: _108  and  _109
REMARK   47  A    between atoms: _108  and  _111
REMARK   48  A    between atoms: _111  and  _112
REMARK   49  A    between atoms: _117  and  _118
REMARK   50  A    between atoms: _120  and  _122
REMARK   51  A    between atoms: _122  and  _123
REMARK   52  A    between atoms: _126  and  _128
REMARK   53  A    between atoms: _128  and  _129
REMARK   54  A    between atoms: _128  and  _131
REMARK   55  A    between atoms: _131  and  _132
REMARK   56  A    between atoms: _132  and  _133
REMARK   57  A    between atoms: _135  and  _137
REMARK   58  A    between atoms: _137  and  _138
REMARK   59  A    between atoms: _137  and  _140
REMARK   60  A    between atoms: _140  and  _141
REMARK   61  A    between atoms: _141  and  _142
REMARK   62  A    between atoms: _142  and  _143
REMARK   63  A    between atoms: _143  and  _144
REMARK   64  A    between atoms: _148  and  _150
REMARK   65  A    between atoms: _150  and  _151
REMARK   66  A    between atoms: _150  and  _153
REMARK   67  A    between atoms: _153  and  _154
REMARK   68  A    between atoms: _157  and  _159
REMARK   69  A    between atoms: _159  and  _160
REMARK   70  A    between atoms: _159  and  _162
REMARK   71  A    between atoms: _162  and  _163
REMARK   72  A    between atoms: _166  and  _168
REMARK   73  A    between atoms: _168  and  _169
REMARK   74  A    between atoms: _168  and  _171
REMARK   75  A    between atoms: _171  and  _172
REMARK   76  A    between atoms: _175  and  _177
REMARK   77  A    between atoms: _177  and  _178
REMARK   78  A    between atoms: _177  and  _180
REMARK   79  A    between atoms: _180  and  _181
REMARK   80  A    between atoms: _181  and  _182
REMARK   81  A    between atoms: _182  and  _183
REMARK   82  A    between atoms: _183  and  _184
REMARK   83  A    between atoms: _188  and  _190
REMARK   84  A    between atoms: _190  and  _191
REMARK   85  A    between atoms: _190  and  _193
REMARK   86  A    between atoms: _196  and  _198
REMARK   87  A    between atoms: _198  and  _199
REMARK   88  A    between atoms: _198  and  _201
REMARK   89  A    between atoms: _201  and  _202
REMARK   90  A    between atoms: _205  and  _207
REMARK   91  A    between atoms: _207  and  _208
REMARK   92  A    between atoms: _207  and  _210
REMARK   93  A    between atoms: _210  and  _211
REMARK   94  A    between atoms: _211  and  _212
REMARK   95  A    between atoms: _212  and  _213
REMARK   96  A    between atoms: _213  and  _214
REMARK   97  A    between atoms: _218  and  _220
REMARK   98  A    between atoms: _220  and  _221
REMARK   99  A    between atoms: _220  and  _223
REMARK  100  A    between atoms: _223  and  _224
REMARK  101  A    between atoms: _224  and  _225
REMARK  102  A    between atoms: _230  and  _232
REMARK  103  A    between atoms: _232  and  _233
REMARK  104  A    between atoms: _232  and  _235
REMARK  105  A    between atoms: _235  and  _236
REMARK  106  A    between atoms: _241  and  _243
REMARK  107  A    between atoms: _243  and  _244
REMARK  108  A    between atoms: _243  and  _246
REMARK  109  A    between atoms: _246  and  _247
REMARK  110  A    between atoms: _250  and  _252
REMARK  111  A    between atoms: _252  and  _253
REMARK  112  A    between atoms: _252  and  _255
REMARK  113  A    between atoms: _255  and  _256
REMARK  114  A    between atoms: _256  and  _257
REMARK  115  A    between atoms: _260  and  _262
REMARK  116  A    between atoms: _262  and  _263
REMARK  117  A    between atoms: _262  and  _265
REMARK  118  A    between atoms: _265  and  _266
REMARK  119  A    between atoms: _269  and  _271
REMARK  120  A    between atoms: _271  and  _272
REMARK  121  A    between atoms: _271  and  _274
REMARK  122  A    between atoms: _277  and  _279
REMARK  123  A    between atoms: _279  and  _280
REMARK  124  A    between atoms: _279  and  _282
REMARK  125  A    between atoms: _282  and  _283
REMARK  126  A    between atoms: _283  and  _284
REMARK  127  A    between atoms: _284  and  _285
REMARK  128  A    between atoms: _285  and  _286
REMARK  129  A    between atoms: _290  and  _292
REMARK  130  A    between atoms: _292  and  _293
REMARK  131  A    between atoms: _292  and  _295
REMARK  132  A    between atoms: _295  and  _296
REMARK  133  A    between atoms: _296  and  _297
REMARK  134  A    between atoms: _299  and  _301
REMARK  135  A    between atoms: _301  and  _302
REMARK  136  A    between atoms: _301  and  _304
REMARK  137  A    between atoms: _304  and  _305
REMARK  138  A    between atoms: _305  and  _306
REMARK  139  A    between atoms: _308  and  _310
REMARK  140  A    between atoms: _310  and  _311
REMARK  141  A    between atoms: _310  and  _313
REMARK  142  A    between atoms: _313  and  _314
REMARK  143  A    between atoms: _314  and  _315
REMARK  144  A    between atoms: _318  and  _320
REMARK  145  A    between atoms: _320  and  _321
REMARK  146  A    between atoms: _320  and  _323
REMARK  147  A    between atoms: _323  and  _324
REMARK  148  A    between atoms: _329  and  _330
REMARK  149  A    between atoms: _332  and  _334
REMARK  150  A    between atoms: _334  and  _335
REMARK  151  A    between atoms: _334  and  _337
REMARK  152  A    between atoms: _341  and  _342
REMARK  153  A    between atoms: _347  and  _349
REMARK  154  A    between atoms: _349  and  _350
REMARK  155  A    between atoms: _352  and  _354
REMARK  156  A    between atoms: _354  and  _355
REMARK  157  A    between atoms: _357  and  _359
REMARK  158  A    between atoms: _359  and  _360
REMARK  159  A    between atoms: _359  and  _362
REMARK  160  A    between atoms: _362  and  _363
REMARK  161  A    between atoms: _363  and  _364
REMARK  162  A    between atoms: _367  and  _369
REMARK  163  A    between atoms: _369  and  _370
REMARK  164  A    between atoms: _369  and  _372
REMARK  165  A    between atoms: _372  and  _373
REMARK  166  A    between atoms: _373  and  _374
REMARK  167  A    between atoms: _376  and  _378
REMARK  168  A    between atoms: _378  and  _379
REMARK  169  A    between atoms: _378  and  _381
REMARK  170  A    between atoms: _381  and  _382
REMARK  171  A    between atoms: _388  and  _390
REMARK  172  A    between atoms: _390  and  _391
REMARK  173  A    between atoms: _390  and  _393
REMARK  174  A    between atoms: _393  and  _394
REMARK  175  A    between atoms: _399  and  _400
REMARK  176  A    between atoms: _402  and  _404
REMARK  177  A    between atoms: _404  and  _405
REMARK  178  A    between atoms: _404  and  _407
REMARK  179  A    between atoms: _407  and  _408
REMARK  180  A    between atoms: _411  and  _413
REMARK  181  A    between atoms: _413  and  _414
REMARK  182  A    between atoms: _413  and  _416
REMARK  183  A    between atoms: _416  and  _417
REMARK  184  A    between atoms: _417  and  _418
REMARK  185  A    between atoms: _418  and  _419
REMARK  186  A    between atoms: _419  and  _420
REMARK  187  A    between atoms: _425  and  _426
REMARK  188  A    between atoms: _431  and  _433
REMARK  189  A    between atoms: _433  and  _434
REMARK  190  A    between atoms: _433  and  _436
REMARK  191  A    between atoms: _436  and  _437
REMARK  192  A    between atoms: _437  and  _438
REMARK  193  A    between atoms: _441  and  _443
REMARK  194  A    between atoms: _443  and  _444
REMARK  195  A    between atoms: _443  and  _446
REMARK  196  A    between atoms: _446  and  _447
REMARK  197  A    between atoms: _452  and  _454
REMARK  198  A    between atoms: _454  and  _455
REMARK  199  A    between atoms: _454  and  _457
REMARK  200  A    between atoms: _457  and  _458
REMARK  201  A    between atoms: _461  and  _463
REMARK  202  A    between atoms: _463  and  _464
REMARK  203  A    between atoms: _463  and  _466
REMARK  204  A    between atoms: _466  and  _467
REMARK  205  A    between atoms: _470  and  _472
REMARK  206  A    between atoms: _472  and  _473
REMARK  207  A    between atoms: _472  and  _475
REMARK  208  A    between atoms: _475  and  _476
REMARK  209  A    between atoms: _479  and  _481
REMARK  210  A    between atoms: _481  and  _482
REMARK  211  A    between atoms: _481  and  _484
REMARK  212  A    between atoms: _484  and  _485
REMARK  213  A    between atoms: _485  and  _486
REMARK  214  A    between atoms: _491  and  _493
REMARK  215  A    between atoms: _493  and  _494
REMARK  216  A    between atoms: _493  and  _496
REMARK  217  A    between atoms: _499  and  _501
REMARK  218  A    between atoms: _501  and  _502
REMARK  219  A    between atoms: _501  and  _504
REMARK  220  A    between atoms: _504  and  _505
REMARK  221  A    between atoms: _508  and  _510
REMARK  222  A    between atoms: _510  and  _511
REMARK  223  A    between atoms: _510  and  _513
REMARK  224  A    between atoms: _513  and  _514
REMARK  225  A    between atoms: _517  and  _519
REMARK  226  A    between atoms: _519  and  _520
REMARK  227  A    between atoms: _519  and  _522
REMARK  228  A    between atoms: _522  and  _523
REMARK  229  A    between atoms: _529  and  _531
REMARK  230  A    between atoms: _531  and  _532
REMARK  231  A    between atoms: _534  and  _536
REMARK  232  A    between atoms: _536  and  _537
REMARK  233  A    between atoms: _536  and  _539
REMARK  234  A    between atoms: _539  and  _540
REMARK  235  A    between atoms: _546  and  _548
REMARK  236  A    between atoms: _548  and  _549
REMARK  237  A    between atoms: _552  and  _554
REMARK  238  A    between atoms: _554  and  _555
REMARK  239  A    between atoms: _557  and  _559
REMARK  240  A    between atoms: _559  and  _560
REMARK  241  A    between atoms: _559  and  _562
REMARK  242  A    between atoms: _562  and  _563
REMARK  243  A    between atoms: _566  and  _568
REMARK  244  A    between atoms: _568  and  _569
REMARK  245  A    between atoms: _568  and  _571
REMARK  246  A    between atoms: _571  and  _572
REMARK  247  A    between atoms: _578  and  _580
REMARK  248  A    between atoms: _580  and  _581
REMARK  249  A    between atoms: _580  and  _583
REMARK  250  A    between atoms: _583  and  _584
REMARK  251  A    between atoms: _589  and  _590
REMARK                            x       y       z     vdW  Elec       q    Type
REMARK                         _______ _______ _______ _____ _____    ______ ____
ROOT
ATOM      1  O   HOH     1       8.650   9.203   6.520  0.00  0.00    +0.000 OA
ENDROOT
TORSDOF 0
REMARK  Name = ../refined-set-2016/1xh5/1xh5_pocket.pdb
REMARK  251 active torsions:
REMARK  status: ('A' for Active; 'I' for Inactive)
REMARK    1  A    between atoms: _1  and  _3
REMARK    2  A    between atoms: _3  and  _4
REMARK    3  A    between atoms: _3  and  _6
REMARK    4  A    between atoms: _6  and  _7
REMARK    5  A    between atoms: _10  and  _12
REMARK    6  A    between atoms: _12  and  _13
REMARK    7  A    between atoms: _12  and  _15
REMARK    8  A    between atoms: _15  and  _16
REMARK    9  A    between atoms: _19  and  _21
REMARK   10  A    between atoms: _21  and  _22
REMARK   11  A    between atoms: _24  and  _26
REMARK   12  A    between atoms: _26  and  _27
REMARK   13  A    between atoms: _26  and  _29
REMARK   14  A    between atoms: _29  and  _30
REMARK   15  A    between atoms: _33  and  _35
REMARK   16  A    between atoms: _35  and  _36
REMARK   17  A    between atoms: _38  and  _40
REMARK   18  A    between atoms: _40  and  _41
REMARK   19  A    between atoms: _40  and  _43
REMARK   20  A    between atoms: _43  and  _44
REMARK   21  A    between atoms: _46  and  _48
REMARK   22  A    between atoms: _48  and  _49
REMARK   23  A    between atoms: _48  and  _51
REMARK   24  A    between atoms: _51  and  _52
REMARK   25  A    between atoms: _58  and  _60
REMARK   26  A    between atoms: _60  and  _61
REMARK   27  A    between atoms: _63  and  _65
REMARK   28  A    between atoms: _65  and  _66
REMARK   29  A    between atoms: _65  and  _68
REMARK   30  A    between atoms: _68  and  _69
REMARK   31  A    between atoms: _69  and  _70
REMARK   32  A    between atoms: _70  and  _71
REMARK   33  A    between atoms: _80  and  _82
REMARK   34  A    between atoms: _82  and  _83
REMARK   35  A    between atoms: _82  and  _85
REMARK   36  A    between atoms: _88  and  _90
REMARK   37  A    between atoms: _90  and  _91
REMARK   38  A    between atoms: _90  and  _93
REMARK   39  A    between atoms: _93  and  _94
REMARK   40  A    between atoms: _94  and  _95
REMARK   41  A    between atoms: _97  and  _99
REMARK   42  A    between atoms: _99  and  _100
REMARK   43  A    between atoms: _99  and  _102
REMARK   44  A    between atoms: _102  and  _103
REMARK   45  A    between atoms: _106  and  _108
REMARK   46  A    between atoms: _108  and  _109
REMARK   47  A    between atoms: _108  and  _111
REMARK   48  A    between atoms: _111  and  _112
REMARK   49  A    between atoms: _117  and  _118
REMARK   50  A    between atoms: _120  and  _122
REMARK   51  A    between atoms: _122  and  _123
REMARK   52  A    between atoms: _126  and  _128
REMARK   53  A    between atoms: _128  and  _129
REMARK   54  A    between atoms: _128  and  _131
REMARK   55  A    between atoms: _131  and  _132
REMARK   56  A    between atoms: _132  and  _133
REMARK   57  A    between atoms: _135  and  _137
REMARK   58  A    between atoms: _137  and  _138
REMARK   59  A    between atoms: _137  and  _140
REMARK   60  A    between atoms: _140  and  _141
REMARK   61  A    between atoms: _141  and  _142
REMARK   62  A    between atoms: _142  and  _143
REMARK   63  A    between atoms: _143  and  _144
REMARK   64  A    between atoms: _148  and  _150
REMARK   65  A    between atoms: _150  and  _151
REMARK   66  A    between atoms: _150  and  _153
REMARK   67  A    between atoms: _153  and  _154
REMARK   68  A    between atoms: _157  and  _159
REMARK   69  A    between atoms: _159  and  _160
REMARK   70  A    between atoms: _159  and  _162
REMARK   71  A    between atoms: _162  and  _163
REMARK   72  A    between atoms: _166  and  _168
REMARK   73  A    between atoms: _168  and  _169
REMARK   74  A    between atoms: _168  and  _171
REMARK   75  A    between atoms: _171  and  _172
REMARK   76  A    between atoms: _175  and  _177
REMARK   77  A    between atoms: _177  and  _178
REMARK   78  A    between atoms: _177  and  _180
REMARK   79  A    between atoms: _180  and  _181
REMARK   80  A    between atoms: _181  and  _182
REMARK   81  A    between atoms: _182  and  _183
REMARK   82  A    between atoms: _183  and  _184
REMARK   83  A    between atoms: _188  and  _190
REMARK   84  A    between atoms: _190  and  _191
REMARK   85  A    between atoms: _190  and  _193
REMARK   86  A    between atoms: _196  and  _198
REMARK   87  A    between atoms: _198  and  _199
REMARK   88  A    between atoms: _198  and  _201
REMARK   89  A    between atoms: _201  and  _202
REMARK   90  A    between atoms: _205  and  _207
REMARK   91  A    between atoms: _207  and  _208
REMARK   92  A    between atoms: _207  and  _210
REMARK   93  A    between atoms: _210  and  _211
REMARK   94  A    between atoms: _211  and  _212
REMARK   95  A    between atoms: _212  and  _213
REMARK   96  A    between atoms: _213  and  _214
REMARK   97  A    between atoms: _218  and  _220
REMARK   98  A    between atoms: _220  and  _221
REMARK   99  A    between atoms: _220  and  _223
REMARK  100  A    between atoms: _223  and  _224
REMARK  101  A    between atoms: _224  and  _225
REMARK  102  A    between atoms: _230  and  _232
REMARK  103  A    between atoms: _232  and  _233
REMARK  104  A    between atoms: _232  and  _235
REMARK  105  A    between atoms: _235  and  _236
REMARK  106  A    between atoms: _241  and  _243
REMARK  107  A    between atoms: _243  and  _244
REMARK  108  A    between atoms: _243  and  _246
REMARK  109  A    between atoms: _246  and  _247
REMARK  110  A    between atoms: _250  and  _252
REMARK  111  A    between atoms: _252  and  _253
REMARK  112  A    between atoms: _252  and  _255
REMARK  113  A    between atoms: _255  and  _256
REMARK  114  A    between atoms: _256  and  _257
REMARK  115  A    between atoms: _260  and  _262
REMARK  116  A    between atoms: _262  and  _263
REMARK  117  A    between atoms: _262  and  _265
REMARK  118  A    between atoms: _265  and  _266
REMARK  119  A    between atoms: _269  and  _271
REMARK  120  A    between atoms: _271  and  _272
REMARK  121  A    between atoms: _271  and  _274
REMARK  122  A    between atoms: _277  and  _279
REMARK  123  A    between atoms: _279  and  _280
REMARK  124  A    between atoms: _279  and  _282
REMARK  125  A    between atoms: _282  and  _283
REMARK  126  A    between atoms: _283  and  _284
REMARK  127  A    between atoms: _284  and  _285
REMARK  128  A    between atoms: _285  and  _286
REMARK  129  A    between atoms: _290  and  _292
REMARK  130  A    between atoms: _292  and  _293
REMARK  131  A    between atoms: _292  and  _295
REMARK  132  A    between atoms: _295  and  _296
REMARK  133  A    between atoms: _296  and  _297
REMARK  134  A    between atoms: _299  and  _301
REMARK  135  A    between atoms: _301  and  _302
REMARK  136  A    between atoms: _301  and  _304
REMARK  137  A    between atoms: _304  and  _305
REMARK  138  A    between atoms: _305  and  _306
REMARK  139  A    between atoms: _308  and  _310
REMARK  140  A    between atoms: _310  and  _311
REMARK  141  A    between atoms: _310  and  _313
REMARK  142  A    between atoms: _313  and  _314
REMARK  143  A    between atoms: _314  and  _315
REMARK  144  A    between atoms: _318  and  _320
REMARK  145  A    between atoms: _320  and  _321
REMARK  146  A    between atoms: _320  and  _323
REMARK  147  A    between atoms: _323  and  _324
REMARK  148  A    between atoms: _329  and  _330
REMARK  149  A    between atoms: _332  and  _334
REMARK  150  A    between atoms: _334  and  _335
REMARK  151  A    between atoms: _334  and  _337
REMARK  152  A    between atoms: _341  and  _342
REMARK  153  A    between atoms: _347  and  _349
REMARK  154  A    between atoms: _349  and  _350
REMARK  155  A    between atoms: _352  and  _354
REMARK  156  A    between atoms: _354  and  _355
REMARK  157  A    between atoms: _357  and  _359
REMARK  158  A    between atoms: _359  and  _360
REMARK  159  A    between atoms: _359  and  _362
REMARK  160  A    between atoms: _362  and  _363
REMARK  161  A    between atoms: _363  and  _364
REMARK  162  A    between atoms: _367  and  _369
REMARK  163  A    between atoms: _369  and  _370
REMARK  164  A    between atoms: _369  and  _372
REMARK  165  A    between atoms: _372  and  _373
REMARK  166  A    between atoms: _373  and  _374
REMARK  167  A    between atoms: _376  and  _378
REMARK  168  A    between atoms: _378  and  _379
REMARK  169  A    between atoms: _378  and  _381
REMARK  170  A    between atoms: _381  and  _382
REMARK  171  A    between atoms: _388  and  _390
REMARK  172  A    between atoms: _390  and  _391
REMARK  173  A    between atoms: _390  and  _393
REMARK  174  A    between atoms: _393  and  _394
REMARK  175  A    between atoms: _399  and  _400
REMARK  176  A    between atoms: _402  and  _404
REMARK  177  A    between atoms: _404  and  _405
REMARK  178  A    between atoms: _404  and  _407
REMARK  179  A    between atoms: _407  and  _408
REMARK  180  A    between atoms: _411  and  _413
REMARK  181  A    between atoms: _413  and  _414
REMARK  182  A    between atoms: _413  and  _416
REMARK  183  A    between atoms: _416  and  _417
REMARK  184  A    between atoms: _417  and  _418
REMARK  185  A    between atoms: _418  and  _419
REMARK  186  A    between atoms: _419  and  _420
REMARK  187  A    between atoms: _425  and  _426
REMARK  188  A    between atoms: _431  and  _433
REMARK  189  A    between atoms: _433  and  _434
REMARK  190  A    between atoms: _433  and  _436
REMARK  191  A    between atoms: _436  and  _437
REMARK  192  A    between atoms: _437  and  _438
REMARK  193  A    between atoms: _441  and  _443
REMARK  194  A    between atoms: _443  and  _444
REMARK  195  A    between atoms: _443  and  _446
REMARK  196  A    between atoms: _446  and  _447
REMARK  197  A    between atoms: _452  and  _454
REMARK  198  A    between atoms: _454  and  _455
REMARK  199  A    between atoms: _454  and  _457
REMARK  200  A    between atoms: _457  and  _458
REMARK  201  A    between atoms: _461  and  _463
REMARK  202  A    between atoms: _463  and  _464
REMARK  203  A    between atoms: _463  and  _466
REMARK  204  A    between atoms: _466  and  _467
REMARK  205  A    between atoms: _470  and  _472
REMARK  206  A    between atoms: _472  and  _473
REMARK  207  A    between atoms: _472  and  _475
REMARK  208  A    between atoms: _475  and  _476
REMARK  209  A    between atoms: _479  and  _481
REMARK  210  A    between atoms: _481  and  _482
REMARK  211  A    between atoms: _481  and  _484
REMARK  212  A    between atoms: _484  and  _485
REMARK  213  A    between atoms: _485  and  _486
REMARK  214  A    between atoms: _491  and  _493
REMARK  215  A    between atoms: _493  and  _494
REMARK  216  A    between atoms: _493  and  _496
REMARK  217  A    between atoms: _499  and  _501
REMARK  218  A    between atoms: _501  and  _502
REMARK  219  A    between atoms: _501  and  _504
REMARK  220  A    between atoms: _504  and  _505
REMARK  221  A    between atoms: _508  and  _510
REMARK  222  A    between atoms: _510  and  _511
REMARK  223  A    between atoms: _510  and  _513
REMARK  224  A    between atoms: _513  and  _514
REMARK  225  A    between atoms: _517  and  _519
REMARK  226  A    between atoms: _519  and  _520
REMARK  227  A    between atoms: _519  and  _522
REMARK  228  A    between atoms: _522  and  _523
REMARK  229  A    between atoms: _529  and  _531
REMARK  230  A    between atoms: _531  and  _532
REMARK  231  A    between atoms: _534  and  _536
REMARK  232  A    between atoms: _536  and  _537
REMARK  233  A    between atoms: _536  and  _539
REMARK  234  A    between atoms: _539  and  _540
REMARK  235  A    between atoms: _546  and  _548
REMARK  236  A    between atoms: _548  and  _549
REMARK  237  A    between atoms: _552  and  _554
REMARK  238  A    between atoms: _554  and  _555
REMARK  239  A    between atoms: _557  and  _559
REMARK  240  A    between atoms: _559  and  _560
REMARK  241  A    between atoms: _559  and  _562
REMARK  242  A    between atoms: _562  and  _563
REMARK  243  A    between atoms: _566  and  _568
REMARK  244  A    between atoms: _568  and  _569
REMARK  245  A    between atoms: _568  and  _571
REMARK  246  A    between atoms: _571  and  _572
REMARK  247  A    between atoms: _578  and  _580
REMARK  248  A    between atoms: _580  and  _581
REMARK  249  A    between atoms: _580  and  _583
REMARK  250  A    between atoms: _583  and  _584
REMARK  251  A    between atoms: _589  and  _590
REMARK                            x       y       z     vdW  Elec       q    Type
REMARK                         _______ _______ _______ _____ _____    ______ ____
ROOT
ATOM      1  O   HOH     1       8.341   9.333  -4.627  0.00  0.00    +0.000 OA
ENDROOT
TORSDOF 0
REMARK  Name = ../refined-set-2016/1xh5/1xh5_pocket.pdb
REMARK  251 active torsions:
REMARK  status: ('A' for Active; 'I' for Inactive)
REMARK    1  A    between atoms: _1  and  _3
REMARK    2  A    between atoms: _3  and  _4
REMARK    3  A    between atoms: _3  and  _6
REMARK    4  A    between atoms: _6  and  _7
REMARK    5  A    between atoms: _10  and  _12
REMARK    6  A    between atoms: _12  and  _13
REMARK    7  A    between atoms: _12  and  _15
REMARK    8  A    between atoms: _15  and  _16
REMARK    9  A    between atoms: _19  and  _21
REMARK   10  A    between atoms: _21  and  _22
REMARK   11  A    between atoms: _24  and  _26
REMARK   12  A    between atoms: _26  and  _27
REMARK   13  A    between atoms: _26  and  _29
REMARK   14  A    between atoms: _29  and  _30
REMARK   15  A    between atoms: _33  and  _35
REMARK   16  A    between atoms: _35  and  _36
REMARK   17  A    between atoms: _38  and  _40
REMARK   18  A    between atoms: _40  and  _41
REMARK   19  A    between atoms: _40  and  _43
REMARK   20  A    between atoms: _43  and  _44
REMARK   21  A    between atoms: _46  and  _48
REMARK   22  A    between atoms: _48  and  _49
REMARK   23  A    between atoms: _48  and  _51
REMARK   24  A    between atoms: _51  and  _52
REMARK   25  A    between atoms: _58  and  _60
REMARK   26  A    between atoms: _60  and  _61
REMARK   27  A    between atoms: _63  and  _65
REMARK   28  A    between atoms: _65  and  _66
REMARK   29  A    between atoms: _65  and  _68
REMARK   30  A    between atoms: _68  and  _69
REMARK   31  A    between atoms: _69  and  _70
REMARK   32  A    between atoms: _70  and  _71
REMARK   33  A    between atoms: _80  and  _82
REMARK   34  A    between atoms: _82  and  _83
REMARK   35  A    between atoms: _82  and  _85
REMARK   36  A    between atoms: _88  and  _90
REMARK   37  A    between atoms: _90  and  _91
REMARK   38  A    between atoms: _90  and  _93
REMARK   39  A    between atoms: _93  and  _94
REMARK   40  A    between atoms: _94  and  _95
REMARK   41  A    between atoms: _97  and  _99
REMARK   42  A    between atoms: _99  and  _100
REMARK   43  A    between atoms: _99  and  _102
REMARK   44  A    between atoms: _102  and  _103
REMARK   45  A    between atoms: _106  and  _108
REMARK   46  A    between atoms: _108  and  _109
REMARK   47  A    between atoms: _108  and  _111
REMARK   48  A    between atoms: _111  and  _112
REMARK   49  A    between atoms: _117  and  _118
REMARK   50  A    between atoms: _120  and  _122
REMARK   51  A    between atoms: _122  and  _123
REMARK   52  A    between atoms: _126  and  _128
REMARK   53  A    between atoms: _128  and  _129
REMARK   54  A    between atoms: _128  and  _131
REMARK   55  A    between atoms: _131  and  _132
REMARK   56  A    between atoms: _132  and  _133
REMARK   57  A    between atoms: _135  and  _137
REMARK   58  A    between atoms: _137  and  _138
REMARK   59  A    between atoms: _137  and  _140
REMARK   60  A    between atoms: _140  and  _141
REMARK   61  A    between atoms: _141  and  _142
REMARK   62  A    between atoms: _142  and  _143
REMARK   63  A    between atoms: _143  and  _144
REMARK   64  A    between atoms: _148  and  _150
REMARK   65  A    between atoms: _150  and  _151
REMARK   66  A    between atoms: _150  and  _153
REMARK   67  A    between atoms: _153  and  _154
REMARK   68  A    between atoms: _157  and  _159
REMARK   69  A    between atoms: _159  and  _160
REMARK   70  A    between atoms: _159  and  _162
REMARK   71  A    between atoms: _162  and  _163
REMARK   72  A    between atoms: _166  and  _168
REMARK   73  A    between atoms: _168  and  _169
REMARK   74  A    between atoms: _168  and  _171
REMARK   75  A    between atoms: _171  and  _172
REMARK   76  A    between atoms: _175  and  _177
REMARK   77  A    between atoms: _177  and  _178
REMARK   78  A    between atoms: _177  and  _180
REMARK   79  A    between atoms: _180  and  _181
REMARK   80  A    between atoms: _181  and  _182
REMARK   81  A    between atoms: _182  and  _183
REMARK   82  A    between atoms: _183  and  _184
REMARK   83  A    between atoms: _188  and  _190
REMARK   84  A    between atoms: _190  and  _191
REMARK   85  A    between atoms: _190  and  _193
REMARK   86  A    between atoms: _196  and  _198
REMARK   87  A    between atoms: _198  and  _199
REMARK   88  A    between atoms: _198  and  _201
REMARK   89  A    between atoms: _201  and  _202
REMARK   90  A    between atoms: _205  and  _207
REMARK   91  A    between atoms: _207  and  _208
REMARK   92  A    between atoms: _207  and  _210
REMARK   93  A    between atoms: _210  and  _211
REMARK   94  A    between atoms: _211  and  _212
REMARK   95  A    between atoms: _212  and  _213
REMARK   96  A    between atoms: _213  and  _214
REMARK   97  A    between atoms: _218  and  _220
REMARK   98  A    between atoms: _220  and  _221
REMARK   99  A    between atoms: _220  and  _223
REMARK  100  A    between atoms: _223  and  _224
REMARK  101  A    between atoms: _224  and  _225
REMARK  102  A    between atoms: _230  and  _232
REMARK  103  A    between atoms: _232  and  _233
REMARK  104  A    between atoms: _232  and  _235
REMARK  105  A    between atoms: _235  and  _236
REMARK  106  A    between atoms: _241  and  _243
REMARK  107  A    between atoms: _243  and  _244
REMARK  108  A    between atoms: _243  and  _246
REMARK  109  A    between atoms: _246  and  _247
REMARK  110  A    between atoms: _250  and  _252
REMARK  111  A    between atoms: _252  and  _253
REMARK  112  A    between atoms: _252  and  _255
REMARK  113  A    between atoms: _255  and  _256
REMARK  114  A    between atoms: _256  and  _257
REMARK  115  A    between atoms: _260  and  _262
REMARK  116  A    between atoms: _262  and  _263
REMARK  117  A    between atoms: _262  and  _265
REMARK  118  A    between atoms: _265  and  _266
REMARK  119  A    between atoms: _269  and  _271
REMARK  120  A    between atoms: _271  and  _272
REMARK  121  A    between atoms: _271  and  _274
REMARK  122  A    between atoms: _277  and  _279
REMARK  123  A    between atoms: _279  and  _280
REMARK  124  A    between atoms: _279  and  _282
REMARK  125  A    between atoms: _282  and  _283
REMARK  126  A    between atoms: _283  and  _284
REMARK  127  A    between atoms: _284  and  _285
REMARK  128  A    between atoms: _285  and  _286
REMARK  129  A    between atoms: _290  and  _292
REMARK  130  A    between atoms: _292  and  _293
REMARK  131  A    between atoms: _292  and  _295
REMARK  132  A    between atoms: _295  and  _296
REMARK  133  A    between atoms: _296  and  _297
REMARK  134  A    between atoms: _299  and  _301
REMARK  135  A    between atoms: _301  and  _302
REMARK  136  A    between atoms: _301  and  _304
REMARK  137  A    between atoms: _304  and  _305
REMARK  138  A    between atoms: _305  and  _306
REMARK  139  A    between atoms: _308  and  _310
REMARK  140  A    between atoms: _310  and  _311
REMARK  141  A    between atoms: _310  and  _313
REMARK  142  A    between atoms: _313  and  _314
REMARK  143  A    between atoms: _314  and  _315
REMARK  144  A    between atoms: _318  and  _320
REMARK  145  A    between atoms: _320  and  _321
REMARK  146  A    between atoms: _320  and  _323
REMARK  147  A    between atoms: _323  and  _324
REMARK  148  A    between atoms: _329  and  _330
REMARK  149  A    between atoms: _332  and  _334
REMARK  150  A    between atoms: _334  and  _335
REMARK  151  A    between atoms: _334  and  _337
REMARK  152  A    between atoms: _341  and  _342
REMARK  153  A    between atoms: _347  and  _349
REMARK  154  A    between atoms: _349  and  _350
REMARK  155  A    between atoms: _352  and  _354
REMARK  156  A    between atoms: _354  and  _355
REMARK  157  A    between atoms: _357  and  _359
REMARK  158  A    between atoms: _359  and  _360
REMARK  159  A    between atoms: _359  and  _362
REMARK  160  A    between atoms: _362  and  _363
REMARK  161  A    between atoms: _363  and  _364
REMARK  162  A    between atoms: _367  and  _369
REMARK  163  A    between atoms: _369  and  _370
REMARK  164  A    between atoms: _369  and  _372
REMARK  165  A    between atoms: _372  and  _373
REMARK  166  A    between atoms: _373  and  _374
REMARK  167  A    between atoms: _376  and  _378
REMARK  168  A    between atoms: _378  and  _379
REMARK  169  A    between atoms: _378  and  _381
REMARK  170  A    between atoms: _381  and  _382
REMARK  171  A    between atoms: _388  and  _390
REMARK  172  A    between atoms: _390  and  _391
REMARK  173  A    between atoms: _390  and  _393
REMARK  174  A    between atoms: _393  and  _394
REMARK  175  A    between atoms: _399  and  _400
REMARK  176  A    between atoms: _402  and  _404
REMARK  177  A    between atoms: _404  and  _405
REMARK  178  A    between atoms: _404  and  _407
REMARK  179  A    between atoms: _407  and  _408
REMARK  180  A    between atoms: _411  and  _413
REMARK  181  A    between atoms: _413  and  _414
REMARK  182  A    between atoms: _413  and  _416
REMARK  183  A    between atoms: _416  and  _417
REMARK  184  A    between atoms: _417  and  _418
REMARK  185  A    between atoms: _418  and  _419
REMARK  186  A    between atoms: _419  and  _420
REMARK  187  A    between atoms: _425  and  _426
REMARK  188  A    between atoms: _431  and  _433
REMARK  189  A    between atoms: _433  and  _434
REMARK  190  A    between atoms: _433  and  _436
REMARK  191  A    between atoms: _436  and  _437
REMARK  192  A    between atoms: _437  and  _438
REMARK  193  A    between atoms: _441  and  _443
REMARK  194  A    between atoms: _443  and  _444
REMARK  195  A    between atoms: _443  and  _446
REMARK  196  A    between atoms: _446  and  _447
REMARK  197  A    between atoms: _452  and  _454
REMARK  198  A    between atoms: _454  and  _455
REMARK  199  A    between atoms: _454  and  _457
REMARK  200  A    between atoms: _457  and  _458
REMARK  201  A    between atoms: _461  and  _463
REMARK  202  A    between atoms: _463  and  _464
REMARK  203  A    between atoms: _463  and  _466
REMARK  204  A    between atoms: _466  and  _467
REMARK  205  A    between atoms: _470  and  _472
REMARK  206  A    between atoms: _472  and  _473
REMARK  207  A    between atoms: _472  and  _475
REMARK  208  A    between atoms: _475  and  _476
REMARK  209  A    between atoms: _479  and  _481
REMARK  210  A    between atoms: _481  and  _482
REMARK  211  A    between atoms: _481  and  _484
REMARK  212  A    between atoms: _484  and  _485
REMARK  213  A    between atoms: _485  and  _486
REMARK  214  A    between atoms: _491  and  _493
REMARK  215  A    between atoms: _493  and  _494
REMARK  216  A    between atoms: _493  and  _496
REMARK  217  A    between atoms: _499  and  _501
REMARK  218  A    between atoms: _501  and  _502
REMARK  219  A    between atoms: _501  and  _504
REMARK  220  A    between atoms: _504  and  _505
REMARK  221  A    between atoms: _508  and  _510
REMARK  222  A    between atoms: _510  and  _511
REMARK  223  A    between atoms: _510  and  _513
REMARK  224  A    between atoms: _513  and  _514
REMARK  225  A    between atoms: _517  and  _519
REMARK  226  A    between atoms: _519  and  _520
REMARK  227  A    between atoms: _519  and  _522
REMARK  228  A    between atoms: _522  and  _523
REMARK  229  A    between atoms: _529  and  _531
REMARK  230  A    between atoms: _531  and  _532
REMARK  231  A    between atoms: _534  and  _536
REMARK  232  A    between atoms: _536  and  _537
REMARK  233  A    between atoms: _536  and  _539
REMARK  234  A    between atoms: _539  and  _540
REMARK  235  A    between atoms: _546  and  _548
REMARK  236  A    between atoms: _548  and  _549
REMARK  237  A    between atoms: _552  and  _554
REMARK  238  A    between atoms: _554  and  _555
REMARK  239  A    between atoms: _557  and  _559
REMARK  240  A    between atoms: _559  and  _560
REMARK  241  A    between atoms: _559  and  _562
REMARK  242  A    between atoms: _562  and  _563
REMARK  243  A    between atoms: _566  and  _568
REMARK  244  A    between atoms: _568  and  _569
REMARK  245  A    between atoms: _568  and  _571
REMARK  246  A    between atoms: _571  and  _572
REMARK  247  A    between atoms: _578  and  _580
REMARK  248  A    between atoms: _580  and  _581
REMARK  249  A    between atoms: _580  and  _583
REMARK  250  A    between atoms: _583  and  _584
REMARK  251  A    between atoms: _589  and  _590
REMARK                            x       y       z     vdW  Elec       q    Type
REMARK                         _______ _______ _______ _____ _____    ______ ____
ROOT
ATOM      1  O   HOH     1      -3.900  11.979   2.930  0.00  0.00    +0.000 OA
ENDROOT
TORSDOF 0
REMARK  Name = ../refined-set-2016/1xh5/1xh5_pocket.pdb
REMARK  251 active torsions:
REMARK  status: ('A' for Active; 'I' for Inactive)
REMARK    1  A    between atoms: _1  and  _3
REMARK    2  A    between atoms: _3  and  _4
REMARK    3  A    between atoms: _3  and  _6
REMARK    4  A    between atoms: _6  and  _7
REMARK    5  A    between atoms: _10  and  _12
REMARK    6  A    between atoms: _12  and  _13
REMARK    7  A    between atoms: _12  and  _15
REMARK    8  A    between atoms: _15  and  _16
REMARK    9  A    between atoms: _19  and  _21
REMARK   10  A    between atoms: _21  and  _22
REMARK   11  A    between atoms: _24  and  _26
REMARK   12  A    between atoms: _26  and  _27
REMARK   13  A    between atoms: _26  and  _29
REMARK   14  A    between atoms: _29  and  _30
REMARK   15  A    between atoms: _33  and  _35
REMARK   16  A    between atoms: _35  and  _36
REMARK   17  A    between atoms: _38  and  _40
REMARK   18  A    between atoms: _40  and  _41
REMARK   19  A    between atoms: _40  and  _43
REMARK   20  A    between atoms: _43  and  _44
REMARK   21  A    between atoms: _46  and  _48
REMARK   22  A    between atoms: _48  and  _49
REMARK   23  A    between atoms: _48  and  _51
REMARK   24  A    between atoms: _51  and  _52
REMARK   25  A    between atoms: _58  and  _60
REMARK   26  A    between atoms: _60  and  _61
REMARK   27  A    between atoms: _63  and  _65
REMARK   28  A    between atoms: _65  and  _66
REMARK   29  A    between atoms: _65  and  _68
REMARK   30  A    between atoms: _68  and  _69
REMARK   31  A    between atoms: _69  and  _70
REMARK   32  A    between atoms: _70  and  _71
REMARK   33  A    between atoms: _80  and  _82
REMARK   34  A    between atoms: _82  and  _83
REMARK   35  A    between atoms: _82  and  _85
REMARK   36  A    between atoms: _88  and  _90
REMARK   37  A    between atoms: _90  and  _91
REMARK   38  A    between atoms: _90  and  _93
REMARK   39  A    between atoms: _93  and  _94
REMARK   40  A    between atoms: _94  and  _95
REMARK   41  A    between atoms: _97  and  _99
REMARK   42  A    between atoms: _99  and  _100
REMARK   43  A    between atoms: _99  and  _102
REMARK   44  A    between atoms: _102  and  _103
REMARK   45  A    between atoms: _106  and  _108
REMARK   46  A    between atoms: _108  and  _109
REMARK   47  A    between atoms: _108  and  _111
REMARK   48  A    between atoms: _111  and  _112
REMARK   49  A    between atoms: _117  and  _118
REMARK   50  A    between atoms: _120  and  _122
REMARK   51  A    between atoms: _122  and  _123
REMARK   52  A    between atoms: _126  and  _128
REMARK   53  A    between atoms: _128  and  _129
REMARK   54  A    between atoms: _128  and  _131
REMARK   55  A    between atoms: _131  and  _132
REMARK   56  A    between atoms: _132  and  _133
REMARK   57  A    between atoms: _135  and  _137
REMARK   58  A    between atoms: _137  and  _138
REMARK   59  A    between atoms: _137  and  _140
REMARK   60  A    between atoms: _140  and  _141
REMARK   61  A    between atoms: _141  and  _142
REMARK   62  A    between atoms: _142  and  _143
REMARK   63  A    between atoms: _143  and  _144
REMARK   64  A    between atoms: _148  and  _150
REMARK   65  A    between atoms: _150  and  _151
REMARK   66  A    between atoms: _150  and  _153
REMARK   67  A    between atoms: _153  and  _154
REMARK   68  A    between atoms: _157  and  _159
REMARK   69  A    between atoms: _159  and  _160
REMARK   70  A    between atoms: _159  and  _162
REMARK   71  A    between atoms: _162  and  _163
REMARK   72  A    between atoms: _166  and  _168
REMARK   73  A    between atoms: _168  and  _169
REMARK   74  A    between atoms: _168  and  _171
REMARK   75  A    between atoms: _171  and  _172
REMARK   76  A    between atoms: _175  and  _177
REMARK   77  A    between atoms: _177  and  _178
REMARK   78  A    between atoms: _177  and  _180
REMARK   79  A    between atoms: _180  and  _181
REMARK   80  A    between atoms: _181  and  _182
REMARK   81  A    between atoms: _182  and  _183
REMARK   82  A    between atoms: _183  and  _184
REMARK   83  A    between atoms: _188  and  _190
REMARK   84  A    between atoms: _190  and  _191
REMARK   85  A    between atoms: _190  and  _193
REMARK   86  A    between atoms: _196  and  _198
REMARK   87  A    between atoms: _198  and  _199
REMARK   88  A    between atoms: _198  and  _201
REMARK   89  A    between atoms: _201  and  _202
REMARK   90  A    between atoms: _205  and  _207
REMARK   91  A    between atoms: _207  and  _208
REMARK   92  A    between atoms: _207  and  _210
REMARK   93  A    between atoms: _210  and  _211
REMARK   94  A    between atoms: _211  and  _212
REMARK   95  A    between atoms: _212  and  _213
REMARK   96  A    between atoms: _213  and  _214
REMARK   97  A    between atoms: _218  and  _220
REMARK   98  A    between atoms: _220  and  _221
REMARK   99  A    between atoms: _220  and  _223
REMARK  100  A    between atoms: _223  and  _224
REMARK  101  A    between atoms: _224  and  _225
REMARK  102  A    between atoms: _230  and  _232
REMARK  103  A    between atoms: _232  and  _233
REMARK  104  A    between atoms: _232  and  _235
REMARK  105  A    between atoms: _235  and  _236
REMARK  106  A    between atoms: _241  and  _243
REMARK  107  A    between atoms: _243  and  _244
REMARK  108  A    between atoms: _243  and  _246
REMARK  109  A    between atoms: _246  and  _247
REMARK  110  A    between atoms: _250  and  _252
REMARK  111  A    between atoms: _252  and  _253
REMARK  112  A    between atoms: _252  and  _255
REMARK  113  A    between atoms: _255  and  _256
REMARK  114  A    between atoms: _256  and  _257
REMARK  115  A    between atoms: _260  and  _262
REMARK  116  A    between atoms: _262  and  _263
REMARK  117  A    between atoms: _262  and  _265
REMARK  118  A    between atoms: _265  and  _266
REMARK  119  A    between atoms: _269  and  _271
REMARK  120  A    between atoms: _271  and  _272
REMARK  121  A    between atoms: _271  and  _274
REMARK  122  A    between atoms: _277  and  _279
REMARK  123  A    between atoms: _279  and  _280
REMARK  124  A    between atoms: _279  and  _282
REMARK  125  A    between atoms: _282  and  _283
REMARK  126  A    between atoms: _283  and  _284
REMARK  127  A    between atoms: _284  and  _285
REMARK  128  A    between atoms: _285  and  _286
REMARK  129  A    between atoms: _290  and  _292
REMARK  130  A    between atoms: _292  and  _293
REMARK  131  A    between atoms: _292  and  _295
REMARK  132  A    between atoms: _295  and  _296
REMARK  133  A    between atoms: _296  and  _297
REMARK  134  A    between atoms: _299  and  _301
REMARK  135  A    between atoms: _301  and  _302
REMARK  136  A    between atoms: _301  and  _304
REMARK  137  A    between atoms: _304  and  _305
REMARK  138  A    between atoms: _305  and  _306
REMARK  139  A    between atoms: _308  and  _310
REMARK  140  A    between atoms: _310  and  _311
REMARK  141  A    between atoms: _310  and  _313
REMARK  142  A    between atoms: _313  and  _314
REMARK  143  A    between atoms: _314  and  _315
REMARK  144  A    between atoms: _318  and  _320
REMARK  145  A    between atoms: _320  and  _321
REMARK  146  A    between atoms: _320  and  _323
REMARK  147  A    between atoms: _323  and  _324
REMARK  148  A    between atoms: _329  and  _330
REMARK  149  A    between atoms: _332  and  _334
REMARK  150  A    between atoms: _334  and  _335
REMARK  151  A    between atoms: _334  and  _337
REMARK  152  A    between atoms: _341  and  _342
REMARK  153  A    between atoms: _347  and  _349
REMARK  154  A    between atoms: _349  and  _350
REMARK  155  A    between atoms: _352  and  _354
REMARK  156  A    between atoms: _354  and  _355
REMARK  157  A    between atoms: _357  and  _359
REMARK  158  A    between atoms: _359  and  _360
REMARK  159  A    between atoms: _359  and  _362
REMARK  160  A    between atoms: _362  and  _363
REMARK  161  A    between atoms: _363  and  _364
REMARK  162  A    between atoms: _367  and  _369
REMARK  163  A    between atoms: _369  and  _370
REMARK  164  A    between atoms: _369  and  _372
REMARK  165  A    between atoms: _372  and  _373
REMARK  166  A    between atoms: _373  and  _374
REMARK  167  A    between atoms: _376  and  _378
REMARK  168  A    between atoms: _378  and  _379
REMARK  169  A    between atoms: _378  and  _381
REMARK  170  A    between atoms: _381  and  _382
REMARK  171  A    between atoms: _388  and  _390
REMARK  172  A    between atoms: _390  and  _391
REMARK  173  A    between atoms: _390  and  _393
REMARK  174  A    between atoms: _393  and  _394
REMARK  175  A    between atoms: _399  and  _400
REMARK  176  A    between atoms: _402  and  _404
REMARK  177  A    between atoms: _404  and  _405
REMARK  178  A    between atoms: _404  and  _407
REMARK  179  A    between atoms: _407  and  _408
REMARK  180  A    between atoms: _411  and  _413
REMARK  181  A    between atoms: _413  and  _414
REMARK  182  A    between atoms: _413  and  _416
REMARK  183  A    between atoms: _416  and  _417
REMARK  184  A    between atoms: _417  and  _418
REMARK  185  A    between atoms: _418  and  _419
REMARK  186  A    between atoms: _419  and  _420
REMARK  187  A    between atoms: _425  and  _426
REMARK  188  A    between atoms: _431  and  _433
REMARK  189  A    between atoms: _433  and  _434
REMARK  190  A    between atoms: _433  and  _436
REMARK  191  A    between atoms: _436  and  _437
REMARK  192  A    between atoms: _437  and  _438
REMARK  193  A    between atoms: _441  and  _443
REMARK  194  A    between atoms: _443  and  _444
REMARK  195  A    between atoms: _443  and  _446
REMARK  196  A    between atoms: _446  and  _447
REMARK  197  A    between atoms: _452  and  _454
REMARK  198  A    between atoms: _454  and  _455
REMARK  199  A    between atoms: _454  and  _457
REMARK  200  A    between atoms: _457  and  _458
REMARK  201  A    between atoms: _461  and  _463
REMARK  202  A    between atoms: _463  and  _464
REMARK  203  A    between atoms: _463  and  _466
REMARK  204  A    between atoms: _466  and  _467
REMARK  205  A    between atoms: _470  and  _472
REMARK  206  A    between atoms: _472  and  _473
REMARK  207  A    between atoms: _472  and  _475
REMARK  208  A    between atoms: _475  and  _476
REMARK  209  A    between atoms: _479  and  _481
REMARK  210  A    between atoms: _481  and  _482
REMARK  211  A    between atoms: _481  and  _484
REMARK  212  A    between atoms: _484  and  _485
REMARK  213  A    between atoms: _485  and  _486
REMARK  214  A    between atoms: _491  and  _493
REMARK  215  A    between atoms: _493  and  _494
REMARK  216  A    between atoms: _493  and  _496
REMARK  217  A    between atoms: _499  and  _501
REMARK  218  A    between atoms: _501  and  _502
REMARK  219  A    between atoms: _501  and  _504
REMARK  220  A    between atoms: _504  and  _505
REMARK  221  A    between atoms: _508  and  _510
REMARK  222  A    between atoms: _510  and  _511
REMARK  223  A    between atoms: _510  and  _513
REMARK  224  A    between atoms: _513  and  _514
REMARK  225  A    between atoms: _517  and  _519
REMARK  226  A    between atoms: _519  and  _520
REMARK  227  A    between atoms: _519  and  _522
REMARK  228  A    between atoms: _522  and  _523
REMARK  229  A    between atoms: _529  and  _531
REMARK  230  A    between atoms: _531  and  _532
REMARK  231  A    between atoms: _534  and  _536
REMARK  232  A    between atoms: _536  and  _537
REMARK  233  A    between atoms: _536  and  _539
REMARK  234  A    between atoms: _539  and  _540
REMARK  235  A    between atoms: _546  and  _548
REMARK  236  A    between atoms: _548  and  _549
REMARK  237  A    between atoms: _552  and  _554
REMARK  238  A    between atoms: _554  and  _555
REMARK  239  A    between atoms: _557  and  _559
REMARK  240  A    between atoms: _559  and  _560
REMARK  241  A    between atoms: _559  and  _562
REMARK  242  A    between atoms: _562  and  _563
REMARK  243  A    between atoms: _566  and  _568
REMARK  244  A    between atoms: _568  and  _569
REMARK  245  A    between atoms: _568  and  _571
REMARK  246  A    between atoms: _571  and  _572
REMARK  247  A    between atoms: _578  and  _580
REMARK  248  A    between atoms: _580  and  _581
REMARK  249  A    between atoms: _580  and  _583
REMARK  250  A    between atoms: _583  and  _584
REMARK  251  A    between atoms: _589  and  _590
REMARK                            x       y       z     vdW  Elec       q    Type
REMARK                         _______ _______ _______ _____ _____    ______ ____
ROOT
ATOM      1  O   HOH     1       7.929  10.354  -0.833  0.00  0.00    +0.000 OA
ENDROOT
TORSDOF 0
REMARK  Name = ../refined-set-2016/1xh5/1xh5_pocket.pdb
REMARK  251 active torsions:
REMARK  status: ('A' for Active; 'I' for Inactive)
REMARK    1  A    between atoms: _1  and  _3
REMARK    2  A    between atoms: _3  and  _4
REMARK    3  A    between atoms: _3  and  _6
REMARK    4  A    between atoms: _6  and  _7
REMARK    5  A    between atoms: _10  and  _12
REMARK    6  A    between atoms: _12  and  _13
REMARK    7  A    between atoms: _12  and  _15
REMARK    8  A    between atoms: _15  and  _16
REMARK    9  A    between atoms: _19  and  _21
REMARK   10  A    between atoms: _21  and  _22
REMARK   11  A    between atoms: _24  and  _26
REMARK   12  A    between atoms: _26  and  _27
REMARK   13  A    between atoms: _26  and  _29
REMARK   14  A    between atoms: _29  and  _30
REMARK   15  A    between atoms: _33  and  _35
REMARK   16  A    between atoms: _35  and  _36
REMARK   17  A    between atoms: _38  and  _40
REMARK   18  A    between atoms: _40  and  _41
REMARK   19  A    between atoms: _40  and  _43
REMARK   20  A    between atoms: _43  and  _44
REMARK   21  A    between atoms: _46  and  _48
REMARK   22  A    between atoms: _48  and  _49
REMARK   23  A    between atoms: _48  and  _51
REMARK   24  A    between atoms: _51  and  _52
REMARK   25  A    between atoms: _58  and  _60
REMARK   26  A    between atoms: _60  and  _61
REMARK   27  A    between atoms: _63  and  _65
REMARK   28  A    between atoms: _65  and  _66
REMARK   29  A    between atoms: _65  and  _68
REMARK   30  A    between atoms: _68  and  _69
REMARK   31  A    between atoms: _69  and  _70
REMARK   32  A    between atoms: _70  and  _71
REMARK   33  A    between atoms: _80  and  _82
REMARK   34  A    between atoms: _82  and  _83
REMARK   35  A    between atoms: _82  and  _85
REMARK   36  A    between atoms: _88  and  _90
REMARK   37  A    between atoms: _90  and  _91
REMARK   38  A    between atoms: _90  and  _93
REMARK   39  A    between atoms: _93  and  _94
REMARK   40  A    between atoms: _94  and  _95
REMARK   41  A    between atoms: _97  and  _99
REMARK   42  A    between atoms: _99  and  _100
REMARK   43  A    between atoms: _99  and  _102
REMARK   44  A    between atoms: _102  and  _103
REMARK   45  A    between atoms: _106  and  _108
REMARK   46  A    between atoms: _108  and  _109
REMARK   47  A    between atoms: _108  and  _111
REMARK   48  A    between atoms: _111  and  _112
REMARK   49  A    between atoms: _117  and  _118
REMARK   50  A    between atoms: _120  and  _122
REMARK   51  A    between atoms: _122  and  _123
REMARK   52  A    between atoms: _126  and  _128
REMARK   53  A    between atoms: _128  and  _129
REMARK   54  A    between atoms: _128  and  _131
REMARK   55  A    between atoms: _131  and  _132
REMARK   56  A    between atoms: _132  and  _133
REMARK   57  A    between atoms: _135  and  _137
REMARK   58  A    between atoms: _137  and  _138
REMARK   59  A    between atoms: _137  and  _140
REMARK   60  A    between atoms: _140  and  _141
REMARK   61  A    between atoms: _141  and  _142
REMARK   62  A    between atoms: _142  and  _143
REMARK   63  A    between atoms: _143  and  _144
REMARK   64  A    between atoms: _148  and  _150
REMARK   65  A    between atoms: _150  and  _151
REMARK   66  A    between atoms: _150  and  _153
REMARK   67  A    between atoms: _153  and  _154
REMARK   68  A    between atoms: _157  and  _159
REMARK   69  A    between atoms: _159  and  _160
REMARK   70  A    between atoms: _159  and  _162
REMARK   71  A    between atoms: _162  and  _163
REMARK   72  A    between atoms: _166  and  _168
REMARK   73  A    between atoms: _168  and  _169
REMARK   74  A    between atoms: _168  and  _171
REMARK   75  A    between atoms: _171  and  _172
REMARK   76  A    between atoms: _175  and  _177
REMARK   77  A    between atoms: _177  and  _178
REMARK   78  A    between atoms: _177  and  _180
REMARK   79  A    between atoms: _180  and  _181
REMARK   80  A    between atoms: _181  and  _182
REMARK   81  A    between atoms: _182  and  _183
REMARK   82  A    between atoms: _183  and  _184
REMARK   83  A    between atoms: _188  and  _190
REMARK   84  A    between atoms: _190  and  _191
REMARK   85  A    between atoms: _190  and  _193
REMARK   86  A    between atoms: _196  and  _198
REMARK   87  A    between atoms: _198  and  _199
REMARK   88  A    between atoms: _198  and  _201
REMARK   89  A    between atoms: _201  and  _202
REMARK   90  A    between atoms: _205  and  _207
REMARK   91  A    between atoms: _207  and  _208
REMARK   92  A    between atoms: _207  and  _210
REMARK   93  A    between atoms: _210  and  _211
REMARK   94  A    between atoms: _211  and  _212
REMARK   95  A    between atoms: _212  and  _213
REMARK   96  A    between atoms: _213  and  _214
REMARK   97  A    between atoms: _218  and  _220
REMARK   98  A    between atoms: _220  and  _221
REMARK   99  A    between atoms: _220  and  _223
REMARK  100  A    between atoms: _223  and  _224
REMARK  101  A    between atoms: _224  and  _225
REMARK  102  A    between atoms: _230  and  _232
REMARK  103  A    between atoms: _232  and  _233
REMARK  104  A    between atoms: _232  and  _235
REMARK  105  A    between atoms: _235  and  _236
REMARK  106  A    between atoms: _241  and  _243
REMARK  107  A    between atoms: _243  and  _244
REMARK  108  A    between atoms: _243  and  _246
REMARK  109  A    between atoms: _246  and  _247
REMARK  110  A    between atoms: _250  and  _252
REMARK  111  A    between atoms: _252  and  _253
REMARK  112  A    between atoms: _252  and  _255
REMARK  113  A    between atoms: _255  and  _256
REMARK  114  A    between atoms: _256  and  _257
REMARK  115  A    between atoms: _260  and  _262
REMARK  116  A    between atoms: _262  and  _263
REMARK  117  A    between atoms: _262  and  _265
REMARK  118  A    between atoms: _265  and  _266
REMARK  119  A    between atoms: _269  and  _271
REMARK  120  A    between atoms: _271  and  _272
REMARK  121  A    between atoms: _271  and  _274
REMARK  122  A    between atoms: _277  and  _279
REMARK  123  A    between atoms: _279  and  _280
REMARK  124  A    between atoms: _279  and  _282
REMARK  125  A    between atoms: _282  and  _283
REMARK  126  A    between atoms: _283  and  _284
REMARK  127  A    between atoms: _284  and  _285
REMARK  128  A    between atoms: _285  and  _286
REMARK  129  A    between atoms: _290  and  _292
REMARK  130  A    between atoms: _292  and  _293
REMARK  131  A    between atoms: _292  and  _295
REMARK  132  A    between atoms: _295  and  _296
REMARK  133  A    between atoms: _296  and  _297
REMARK  134  A    between atoms: _299  and  _301
REMARK  135  A    between atoms: _301  and  _302
REMARK  136  A    between atoms: _301  and  _304
REMARK  137  A    between atoms: _304  and  _305
REMARK  138  A    between atoms: _305  and  _306
REMARK  139  A    between atoms: _308  and  _310
REMARK  140  A    between atoms: _310  and  _311
REMARK  141  A    between atoms: _310  and  _313
REMARK  142  A    between atoms: _313  and  _314
REMARK  143  A    between atoms: _314  and  _315
REMARK  144  A    between atoms: _318  and  _320
REMARK  145  A    between atoms: _320  and  _321
REMARK  146  A    between atoms: _320  and  _323
REMARK  147  A    between atoms: _323  and  _324
REMARK  148  A    between atoms: _329  and  _330
REMARK  149  A    between atoms: _332  and  _334
REMARK  150  A    between atoms: _334  and  _335
REMARK  151  A    between atoms: _334  and  _337
REMARK  152  A    between atoms: _341  and  _342
REMARK  153  A    between atoms: _347  and  _349
REMARK  154  A    between atoms: _349  and  _350
REMARK  155  A    between atoms: _352  and  _354
REMARK  156  A    between atoms: _354  and  _355
REMARK  157  A    between atoms: _357  and  _359
REMARK  158  A    between atoms: _359  and  _360
REMARK  159  A    between atoms: _359  and  _362
REMARK  160  A    between atoms: _362  and  _363
REMARK  161  A    between atoms: _363  and  _364
REMARK  162  A    between atoms: _367  and  _369
REMARK  163  A    between atoms: _369  and  _370
REMARK  164  A    between atoms: _369  and  _372
REMARK  165  A    between atoms: _372  and  _373
REMARK  166  A    between atoms: _373  and  _374
REMARK  167  A    between atoms: _376  and  _378
REMARK  168  A    between atoms: _378  and  _379
REMARK  169  A    between atoms: _378  and  _381
REMARK  170  A    between atoms: _381  and  _382
REMARK  171  A    between atoms: _388  and  _390
REMARK  172  A    between atoms: _390  and  _391
REMARK  173  A    between atoms: _390  and  _393
REMARK  174  A    between atoms: _393  and  _394
REMARK  175  A    between atoms: _399  and  _400
REMARK  176  A    between atoms: _402  and  _404
REMARK  177  A    between atoms: _404  and  _405
REMARK  178  A    between atoms: _404  and  _407
REMARK  179  A    between atoms: _407  and  _408
REMARK  180  A    between atoms: _411  and  _413
REMARK  181  A    between atoms: _413  and  _414
REMARK  182  A    between atoms: _413  and  _416
REMARK  183  A    between atoms: _416  and  _417
REMARK  184  A    between atoms: _417  and  _418
REMARK  185  A    between atoms: _418  and  _419
REMARK  186  A    between atoms: _419  and  _420
REMARK  187  A    between atoms: _425  and  _426
REMARK  188  A    between atoms: _431  and  _433
REMARK  189  A    between atoms: _433  and  _434
REMARK  190  A    between atoms: _433  and  _436
REMARK  191  A    between atoms: _436  and  _437
REMARK  192  A    between atoms: _437  and  _438
REMARK  193  A    between atoms: _441  and  _443
REMARK  194  A    between atoms: _443  and  _444
REMARK  195  A    between atoms: _443  and  _446
REMARK  196  A    between atoms: _446  and  _447
REMARK  197  A    between atoms: _452  and  _454
REMARK  198  A    between atoms: _454  and  _455
REMARK  199  A    between atoms: _454  and  _457
REMARK  200  A    between atoms: _457  and  _458
REMARK  201  A    between atoms: _461  and  _463
REMARK  202  A    between atoms: _463  and  _464
REMARK  203  A    between atoms: _463  and  _466
REMARK  204  A    between atoms: _466  and  _467
REMARK  205  A    between atoms: _470  and  _472
REMARK  206  A    between atoms: _472  and  _473
REMARK  207  A    between atoms: _472  and  _475
REMARK  208  A    between atoms: _475  and  _476
REMARK  209  A    between atoms: _479  and  _481
REMARK  210  A    between atoms: _481  and  _482
REMARK  211  A    between atoms: _481  and  _484
REMARK  212  A    between atoms: _484  and  _485
REMARK  213  A    between atoms: _485  and  _486
REMARK  214  A    between atoms: _491  and  _493
REMARK  215  A    between atoms: _493  and  _494
REMARK  216  A    between atoms: _493  and  _496
REMARK  217  A    between atoms: _499  and  _501
REMARK  218  A    between atoms: _501  and  _502
REMARK  219  A    between atoms: _501  and  _504
REMARK  220  A    between atoms: _504  and  _505
REMARK  221  A    between atoms: _508  and  _510
REMARK  222  A    between atoms: _510  and  _511
REMARK  223  A    between atoms: _510  and  _513
REMARK  224  A    between atoms: _513  and  _514
REMARK  225  A    between atoms: _517  and  _519
REMARK  226  A    between atoms: _519  and  _520
REMARK  227  A    between atoms: _519  and  _522
REMARK  228  A    between atoms: _522  and  _523
REMARK  229  A    between atoms: _529  and  _531
REMARK  230  A    between atoms: _531  and  _532
REMARK  231  A    between atoms: _534  and  _536
REMARK  232  A    between atoms: _536  and  _537
REMARK  233  A    between atoms: _536  and  _539
REMARK  234  A    between atoms: _539  and  _540
REMARK  235  A    between atoms: _546  and  _548
REMARK  236  A    between atoms: _548  and  _549
REMARK  237  A    between atoms: _552  and  _554
REMARK  238  A    between atoms: _554  and  _555
REMARK  239  A    between atoms: _557  and  _559
REMARK  240  A    between atoms: _559  and  _560
REMARK  241  A    between atoms: _559  and  _562
REMARK  242  A    between atoms: _562  and  _563
REMARK  243  A    between atoms: _566  and  _568
REMARK  244  A    between atoms: _568  and  _569
REMARK  245  A    between atoms: _568  and  _571
REMARK  246  A    between atoms: _571  and  _572
REMARK  247  A    between atoms: _578  and  _580
REMARK  248  A    between atoms: _580  and  _581
REMARK  249  A    between atoms: _580  and  _583
REMARK  250  A    between atoms: _583  and  _584
REMARK  251  A    between atoms: _589  and  _590
REMARK                            x       y       z     vdW  Elec       q    Type
REMARK                         _______ _______ _______ _____ _____    ______ ____
ROOT
ATOM      1  O   HOH     1      16.696   5.759  -0.511  0.00  0.00    +0.000 OA
ENDROOT
TORSDOF 0
REMARK  Name = ../refined-set-2016/1xh5/1xh5_pocket.pdb
REMARK  251 active torsions:
REMARK  status: ('A' for Active; 'I' for Inactive)
REMARK    1  A    between atoms: _1  and  _3
REMARK    2  A    between atoms: _3  and  _4
REMARK    3  A    between atoms: _3  and  _6
REMARK    4  A    between atoms: _6  and  _7
REMARK    5  A    between atoms: _10  and  _12
REMARK    6  A    between atoms: _12  and  _13
REMARK    7  A    between atoms: _12  and  _15
REMARK    8  A    between atoms: _15  and  _16
REMARK    9  A    between atoms: _19  and  _21
REMARK   10  A    between atoms: _21  and  _22
REMARK   11  A    between atoms: _24  and  _26
REMARK   12  A    between atoms: _26  and  _27
REMARK   13  A    between atoms: _26  and  _29
REMARK   14  A    between atoms: _29  and  _30
REMARK   15  A    between atoms: _33  and  _35
REMARK   16  A    between atoms: _35  and  _36
REMARK   17  A    between atoms: _38  and  _40
REMARK   18  A    between atoms: _40  and  _41
REMARK   19  A    between atoms: _40  and  _43
REMARK   20  A    between atoms: _43  and  _44
REMARK   21  A    between atoms: _46  and  _48
REMARK   22  A    between atoms: _48  and  _49
REMARK   23  A    between atoms: _48  and  _51
REMARK   24  A    between atoms: _51  and  _52
REMARK   25  A    between atoms: _58  and  _60
REMARK   26  A    between atoms: _60  and  _61
REMARK   27  A    between atoms: _63  and  _65
REMARK   28  A    between atoms: _65  and  _66
REMARK   29  A    between atoms: _65  and  _68
REMARK   30  A    between atoms: _68  and  _69
REMARK   31  A    between atoms: _69  and  _70
REMARK   32  A    between atoms: _70  and  _71
REMARK   33  A    between atoms: _80  and  _82
REMARK   34  A    between atoms: _82  and  _83
REMARK   35  A    between atoms: _82  and  _85
REMARK   36  A    between atoms: _88  and  _90
REMARK   37  A    between atoms: _90  and  _91
REMARK   38  A    between atoms: _90  and  _93
REMARK   39  A    between atoms: _93  and  _94
REMARK   40  A    between atoms: _94  and  _95
REMARK   41  A    between atoms: _97  and  _99
REMARK   42  A    between atoms: _99  and  _100
REMARK   43  A    between atoms: _99  and  _102
REMARK   44  A    between atoms: _102  and  _103
REMARK   45  A    between atoms: _106  and  _108
REMARK   46  A    between atoms: _108  and  _109
REMARK   47  A    between atoms: _108  and  _111
REMARK   48  A    between atoms: _111  and  _112
REMARK   49  A    between atoms: _117  and  _118
REMARK   50  A    between atoms: _120  and  _122
REMARK   51  A    between atoms: _122  and  _123
REMARK   52  A    between atoms: _126  and  _128
REMARK   53  A    between atoms: _128  and  _129
REMARK   54  A    between atoms: _128  and  _131
REMARK   55  A    between atoms: _131  and  _132
REMARK   56  A    between atoms: _132  and  _133
REMARK   57  A    between atoms: _135  and  _137
REMARK   58  A    between atoms: _137  and  _138
REMARK   59  A    between atoms: _137  and  _140
REMARK   60  A    between atoms: _140  and  _141
REMARK   61  A    between atoms: _141  and  _142
REMARK   62  A    between atoms: _142  and  _143
REMARK   63  A    between atoms: _143  and  _144
REMARK   64  A    between atoms: _148  and  _150
REMARK   65  A    between atoms: _150  and  _151
REMARK   66  A    between atoms: _150  and  _153
REMARK   67  A    between atoms: _153  and  _154
REMARK   68  A    between atoms: _157  and  _159
REMARK   69  A    between atoms: _159  and  _160
REMARK   70  A    between atoms: _159  and  _162
REMARK   71  A    between atoms: _162  and  _163
REMARK   72  A    between atoms: _166  and  _168
REMARK   73  A    between atoms: _168  and  _169
REMARK   74  A    between atoms: _168  and  _171
REMARK   75  A    between atoms: _171  and  _172
REMARK   76  A    between atoms: _175  and  _177
REMARK   77  A    between atoms: _177  and  _178
REMARK   78  A    between atoms: _177  and  _180
REMARK   79  A    between atoms: _180  and  _181
REMARK   80  A    between atoms: _181  and  _182
REMARK   81  A    between atoms: _182  and  _183
REMARK   82  A    between atoms: _183  and  _184
REMARK   83  A    between atoms: _188  and  _190
REMARK   84  A    between atoms: _190  and  _191
REMARK   85  A    between atoms: _190  and  _193
REMARK   86  A    between atoms: _196  and  _198
REMARK   87  A    between atoms: _198  and  _199
REMARK   88  A    between atoms: _198  and  _201
REMARK   89  A    between atoms: _201  and  _202
REMARK   90  A    between atoms: _205  and  _207
REMARK   91  A    between atoms: _207  and  _208
REMARK   92  A    between atoms: _207  and  _210
REMARK   93  A    between atoms: _210  and  _211
REMARK   94  A    between atoms: _211  and  _212
REMARK   95  A    between atoms: _212  and  _213
REMARK   96  A    between atoms: _213  and  _214
REMARK   97  A    between atoms: _218  and  _220
REMARK   98  A    between atoms: _220  and  _221
REMARK   99  A    between atoms: _220  and  _223
REMARK  100  A    between atoms: _223  and  _224
REMARK  101  A    between atoms: _224  and  _225
REMARK  102  A    between atoms: _230  and  _232
REMARK  103  A    between atoms: _232  and  _233
REMARK  104  A    between atoms: _232  and  _235
REMARK  105  A    between atoms: _235  and  _236
REMARK  106  A    between atoms: _241  and  _243
REMARK  107  A    between atoms: _243  and  _244
REMARK  108  A    between atoms: _243  and  _246
REMARK  109  A    between atoms: _246  and  _247
REMARK  110  A    between atoms: _250  and  _252
REMARK  111  A    between atoms: _252  and  _253
REMARK  112  A    between atoms: _252  and  _255
REMARK  113  A    between atoms: _255  and  _256
REMARK  114  A    between atoms: _256  and  _257
REMARK  115  A    between atoms: _260  and  _262
REMARK  116  A    between atoms: _262  and  _263
REMARK  117  A    between atoms: _262  and  _265
REMARK  118  A    between atoms: _265  and  _266
REMARK  119  A    between atoms: _269  and  _271
REMARK  120  A    between atoms: _271  and  _272
REMARK  121  A    between atoms: _271  and  _274
REMARK  122  A    between atoms: _277  and  _279
REMARK  123  A    between atoms: _279  and  _280
REMARK  124  A    between atoms: _279  and  _282
REMARK  125  A    between atoms: _282  and  _283
REMARK  126  A    between atoms: _283  and  _284
REMARK  127  A    between atoms: _284  and  _285
REMARK  128  A    between atoms: _285  and  _286
REMARK  129  A    between atoms: _290  and  _292
REMARK  130  A    between atoms: _292  and  _293
REMARK  131  A    between atoms: _292  and  _295
REMARK  132  A    between atoms: _295  and  _296
REMARK  133  A    between atoms: _296  and  _297
REMARK  134  A    between atoms: _299  and  _301
REMARK  135  A    between atoms: _301  and  _302
REMARK  136  A    between atoms: _301  and  _304
REMARK  137  A    between atoms: _304  and  _305
REMARK  138  A    between atoms: _305  and  _306
REMARK  139  A    between atoms: _308  and  _310
REMARK  140  A    between atoms: _310  and  _311
REMARK  141  A    between atoms: _310  and  _313
REMARK  142  A    between atoms: _313  and  _314
REMARK  143  A    between atoms: _314  and  _315
REMARK  144  A    between atoms: _318  and  _320
REMARK  145  A    between atoms: _320  and  _321
REMARK  146  A    between atoms: _320  and  _323
REMARK  147  A    between atoms: _323  and  _324
REMARK  148  A    between atoms: _329  and  _330
REMARK  149  A    between atoms: _332  and  _334
REMARK  150  A    between atoms: _334  and  _335
REMARK  151  A    between atoms: _334  and  _337
REMARK  152  A    between atoms: _341  and  _342
REMARK  153  A    between atoms: _347  and  _349
REMARK  154  A    between atoms: _349  and  _350
REMARK  155  A    between atoms: _352  and  _354
REMARK  156  A    between atoms: _354  and  _355
REMARK  157  A    between atoms: _357  and  _359
REMARK  158  A    between atoms: _359  and  _360
REMARK  159  A    between atoms: _359  and  _362
REMARK  160  A    between atoms: _362  and  _363
REMARK  161  A    between atoms: _363  and  _364
REMARK  162  A    between atoms: _367  and  _369
REMARK  163  A    between atoms: _369  and  _370
REMARK  164  A    between atoms: _369  and  _372
REMARK  165  A    between atoms: _372  and  _373
REMARK  166  A    between atoms: _373  and  _374
REMARK  167  A    between atoms: _376  and  _378
REMARK  168  A    between atoms: _378  and  _379
REMARK  169  A    between atoms: _378  and  _381
REMARK  170  A    between atoms: _381  and  _382
REMARK  171  A    between atoms: _388  and  _390
REMARK  172  A    between atoms: _390  and  _391
REMARK  173  A    between atoms: _390  and  _393
REMARK  174  A    between atoms: _393  and  _394
REMARK  175  A    between atoms: _399  and  _400
REMARK  176  A    between atoms: _402  and  _404
REMARK  177  A    between atoms: _404  and  _405
REMARK  178  A    between atoms: _404  and  _407
REMARK  179  A    between atoms: _407  and  _408
REMARK  180  A    between atoms: _411  and  _413
REMARK  181  A    between atoms: _413  and  _414
REMARK  182  A    between atoms: _413  and  _416
REMARK  183  A    between atoms: _416  and  _417
REMARK  184  A    between atoms: _417  and  _418
REMARK  185  A    between atoms: _418  and  _419
REMARK  186  A    between atoms: _419  and  _420
REMARK  187  A    between atoms: _425  and  _426
REMARK  188  A    between atoms: _431  and  _433
REMARK  189  A    between atoms: _433  and  _434
REMARK  190  A    between atoms: _433  and  _436
REMARK  191  A    between atoms: _436  and  _437
REMARK  192  A    between atoms: _437  and  _438
REMARK  193  A    between atoms: _441  and  _443
REMARK  194  A    between atoms: _443  and  _444
REMARK  195  A    between atoms: _443  and  _446
REMARK  196  A    between atoms: _446  and  _447
REMARK  197  A    between atoms: _452  and  _454
REMARK  198  A    between atoms: _454  and  _455
REMARK  199  A    between atoms: _454  and  _457
REMARK  200  A    between atoms: _457  and  _458
REMARK  201  A    between atoms: _461  and  _463
REMARK  202  A    between atoms: _463  and  _464
REMARK  203  A    between atoms: _463  and  _466
REMARK  204  A    between atoms: _466  and  _467
REMARK  205  A    between atoms: _470  and  _472
REMARK  206  A    between atoms: _472  and  _473
REMARK  207  A    between atoms: _472  and  _475
REMARK  208  A    between atoms: _475  and  _476
REMARK  209  A    between atoms: _479  and  _481
REMARK  210  A    between atoms: _481  and  _482
REMARK  211  A    between atoms: _481  and  _484
REMARK  212  A    between atoms: _484  and  _485
REMARK  213  A    between atoms: _485  and  _486
REMARK  214  A    between atoms: _491  and  _493
REMARK  215  A    between atoms: _493  and  _494
REMARK  216  A    between atoms: _493  and  _496
REMARK  217  A    between atoms: _499  and  _501
REMARK  218  A    between atoms: _501  and  _502
REMARK  219  A    between atoms: _501  and  _504
REMARK  220  A    between atoms: _504  and  _505
REMARK  221  A    between atoms: _508  and  _510
REMARK  222  A    between atoms: _510  and  _511
REMARK  223  A    between atoms: _510  and  _513
REMARK  224  A    between atoms: _513  and  _514
REMARK  225  A    between atoms: _517  and  _519
REMARK  226  A    between atoms: _519  and  _520
REMARK  227  A    between atoms: _519  and  _522
REMARK  228  A    between atoms: _522  and  _523
REMARK  229  A    between atoms: _529  and  _531
REMARK  230  A    between atoms: _531  and  _532
REMARK  231  A    between atoms: _534  and  _536
REMARK  232  A    between atoms: _536  and  _537
REMARK  233  A    between atoms: _536  and  _539
REMARK  234  A    between atoms: _539  and  _540
REMARK  235  A    between atoms: _546  and  _548
REMARK  236  A    between atoms: _548  and  _549
REMARK  237  A    between atoms: _552  and  _554
REMARK  238  A    between atoms: _554  and  _555
REMARK  239  A    between atoms: _557  and  _559
REMARK  240  A    between atoms: _559  and  _560
REMARK  241  A    between atoms: _559  and  _562
REMARK  242  A    between atoms: _562  and  _563
REMARK  243  A    between atoms: _566  and  _568
REMARK  244  A    between atoms: _568  and  _569
REMARK  245  A    between atoms: _568  and  _571
REMARK  246  A    between atoms: _571  and  _572
REMARK  247  A    between atoms: _578  and  _580
REMARK  248  A    between atoms: _580  and  _581
REMARK  249  A    between atoms: _580  and  _583
REMARK  250  A    between atoms: _583  and  _584
REMARK  251  A    between atoms: _589  and  _590
REMARK                            x       y       z     vdW  Elec       q    Type
REMARK                         _______ _______ _______ _____ _____    ______ ____
ROOT
ATOM      1  O   HOH     1      11.357   9.268   8.701  0.00  0.00    +0.000 OA
ENDROOT
TORSDOF 0
REMARK  Name = ../refined-set-2016/1xh5/1xh5_pocket.pdb
REMARK  251 active torsions:
REMARK  status: ('A' for Active; 'I' for Inactive)
REMARK    1  A    between atoms: _1  and  _3
REMARK    2  A    between atoms: _3  and  _4
REMARK    3  A    between atoms: _3  and  _6
REMARK    4  A    between atoms: _6  and  _7
REMARK    5  A    between atoms: _10  and  _12
REMARK    6  A    between atoms: _12  and  _13
REMARK    7  A    between atoms: _12  and  _15
REMARK    8  A    between atoms: _15  and  _16
REMARK    9  A    between atoms: _19  and  _21
REMARK   10  A    between atoms: _21  and  _22
REMARK   11  A    between atoms: _24  and  _26
REMARK   12  A    between atoms: _26  and  _27
REMARK   13  A    between atoms: _26  and  _29
REMARK   14  A    between atoms: _29  and  _30
REMARK   15  A    between atoms: _33  and  _35
REMARK   16  A    between atoms: _35  and  _36
REMARK   17  A    between atoms: _38  and  _40
REMARK   18  A    between atoms: _40  and  _41
REMARK   19  A    between atoms: _40  and  _43
REMARK   20  A    between atoms: _43  and  _44
REMARK   21  A    between atoms: _46  and  _48
REMARK   22  A    between atoms: _48  and  _49
REMARK   23  A    between atoms: _48  and  _51
REMARK   24  A    between atoms: _51  and  _52
REMARK   25  A    between atoms: _58  and  _60
REMARK   26  A    between atoms: _60  and  _61
REMARK   27  A    between atoms: _63  and  _65
REMARK   28  A    between atoms: _65  and  _66
REMARK   29  A    between atoms: _65  and  _68
REMARK   30  A    between atoms: _68  and  _69
REMARK   31  A    between atoms: _69  and  _70
REMARK   32  A    between atoms: _70  and  _71
REMARK   33  A    between atoms: _80  and  _82
REMARK   34  A    between atoms: _82  and  _83
REMARK   35  A    between atoms: _82  and  _85
REMARK   36  A    between atoms: _88  and  _90
REMARK   37  A    between atoms: _90  and  _91
REMARK   38  A    between atoms: _90  and  _93
REMARK   39  A    between atoms: _93  and  _94
REMARK   40  A    between atoms: _94  and  _95
REMARK   41  A    between atoms: _97  and  _99
REMARK   42  A    between atoms: _99  and  _100
REMARK   43  A    between atoms: _99  and  _102
REMARK   44  A    between atoms: _102  and  _103
REMARK   45  A    between atoms: _106  and  _108
REMARK   46  A    between atoms: _108  and  _109
REMARK   47  A    between atoms: _108  and  _111
REMARK   48  A    between atoms: _111  and  _112
REMARK   49  A    between atoms: _117  and  _118
REMARK   50  A    between atoms: _120  and  _122
REMARK   51  A    between atoms: _122  and  _123
REMARK   52  A    between atoms: _126  and  _128
REMARK   53  A    between atoms: _128  and  _129
REMARK   54  A    between atoms: _128  and  _131
REMARK   55  A    between atoms: _131  and  _132
REMARK   56  A    between atoms: _132  and  _133
REMARK   57  A    between atoms: _135  and  _137
REMARK   58  A    between atoms: _137  and  _138
REMARK   59  A    between atoms: _137  and  _140
REMARK   60  A    between atoms: _140  and  _141
REMARK   61  A    between atoms: _141  and  _142
REMARK   62  A    between atoms: _142  and  _143
REMARK   63  A    between atoms: _143  and  _144
REMARK   64  A    between atoms: _148  and  _150
REMARK   65  A    between atoms: _150  and  _151
REMARK   66  A    between atoms: _150  and  _153
REMARK   67  A    between atoms: _153  and  _154
REMARK   68  A    between atoms: _157  and  _159
REMARK   69  A    between atoms: _159  and  _160
REMARK   70  A    between atoms: _159  and  _162
REMARK   71  A    between atoms: _162  and  _163
REMARK   72  A    between atoms: _166  and  _168
REMARK   73  A    between atoms: _168  and  _169
REMARK   74  A    between atoms: _168  and  _171
REMARK   75  A    between atoms: _171  and  _172
REMARK   76  A    between atoms: _175  and  _177
REMARK   77  A    between atoms: _177  and  _178
REMARK   78  A    between atoms: _177  and  _180
REMARK   79  A    between atoms: _180  and  _181
REMARK   80  A    between atoms: _181  and  _182
REMARK   81  A    between atoms: _182  and  _183
REMARK   82  A    between atoms: _183  and  _184
REMARK   83  A    between atoms: _188  and  _190
REMARK   84  A    between atoms: _190  and  _191
REMARK   85  A    between atoms: _190  and  _193
REMARK   86  A    between atoms: _196  and  _198
REMARK   87  A    between atoms: _198  and  _199
REMARK   88  A    between atoms: _198  and  _201
REMARK   89  A    between atoms: _201  and  _202
REMARK   90  A    between atoms: _205  and  _207
REMARK   91  A    between atoms: _207  and  _208
REMARK   92  A    between atoms: _207  and  _210
REMARK   93  A    between atoms: _210  and  _211
REMARK   94  A    between atoms: _211  and  _212
REMARK   95  A    between atoms: _212  and  _213
REMARK   96  A    between atoms: _213  and  _214
REMARK   97  A    between atoms: _218  and  _220
REMARK   98  A    between atoms: _220  and  _221
REMARK   99  A    between atoms: _220  and  _223
REMARK  100  A    between atoms: _223  and  _224
REMARK  101  A    between atoms: _224  and  _225
REMARK  102  A    between atoms: _230  and  _232
REMARK  103  A    between atoms: _232  and  _233
REMARK  104  A    between atoms: _232  and  _235
REMARK  105  A    between atoms: _235  and  _236
REMARK  106  A    between atoms: _241  and  _243
REMARK  107  A    between atoms: _243  and  _244
REMARK  108  A    between atoms: _243  and  _246
REMARK  109  A    between atoms: _246  and  _247
REMARK  110  A    between atoms: _250  and  _252
REMARK  111  A    between atoms: _252  and  _253
REMARK  112  A    between atoms: _252  and  _255
REMARK  113  A    between atoms: _255  and  _256
REMARK  114  A    between atoms: _256  and  _257
REMARK  115  A    between atoms: _260  and  _262
REMARK  116  A    between atoms: _262  and  _263
REMARK  117  A    between atoms: _262  and  _265
REMARK  118  A    between atoms: _265  and  _266
REMARK  119  A    between atoms: _269  and  _271
REMARK  120  A    between atoms: _271  and  _272
REMARK  121  A    between atoms: _271  and  _274
REMARK  122  A    between atoms: _277  and  _279
REMARK  123  A    between atoms: _279  and  _280
REMARK  124  A    between atoms: _279  and  _282
REMARK  125  A    between atoms: _282  and  _283
REMARK  126  A    between atoms: _283  and  _284
REMARK  127  A    between atoms: _284  and  _285
REMARK  128  A    between atoms: _285  and  _286
REMARK  129  A    between atoms: _290  and  _292
REMARK  130  A    between atoms: _292  and  _293
REMARK  131  A    between atoms: _292  and  _295
REMARK  132  A    between atoms: _295  and  _296
REMARK  133  A    between atoms: _296  and  _297
REMARK  134  A    between atoms: _299  and  _301
REMARK  135  A    between atoms: _301  and  _302
REMARK  136  A    between atoms: _301  and  _304
REMARK  137  A    between atoms: _304  and  _305
REMARK  138  A    between atoms: _305  and  _306
REMARK  139  A    between atoms: _308  and  _310
REMARK  140  A    between atoms: _310  and  _311
REMARK  141  A    between atoms: _310  and  _313
REMARK  142  A    between atoms: _313  and  _314
REMARK  143  A    between atoms: _314  and  _315
REMARK  144  A    between atoms: _318  and  _320
REMARK  145  A    between atoms: _320  and  _321
REMARK  146  A    between atoms: _320  and  _323
REMARK  147  A    between atoms: _323  and  _324
REMARK  148  A    between atoms: _329  and  _330
REMARK  149  A    between atoms: _332  and  _334
REMARK  150  A    between atoms: _334  and  _335
REMARK  151  A    between atoms: _334  and  _337
REMARK  152  A    between atoms: _341  and  _342
REMARK  153  A    between atoms: _347  and  _349
REMARK  154  A    between atoms: _349  and  _350
REMARK  155  A    between atoms: _352  and  _354
REMARK  156  A    between atoms: _354  and  _355
REMARK  157  A    between atoms: _357  and  _359
REMARK  158  A    between atoms: _359  and  _360
REMARK  159  A    between atoms: _359  and  _362
REMARK  160  A    between atoms: _362  and  _363
REMARK  161  A    between atoms: _363  and  _364
REMARK  162  A    between atoms: _367  and  _369
REMARK  163  A    between atoms: _369  and  _370
REMARK  164  A    between atoms: _369  and  _372
REMARK  165  A    between atoms: _372  and  _373
REMARK  166  A    between atoms: _373  and  _374
REMARK  167  A    between atoms: _376  and  _378
REMARK  168  A    between atoms: _378  and  _379
REMARK  169  A    between atoms: _378  and  _381
REMARK  170  A    between atoms: _381  and  _382
REMARK  171  A    between atoms: _388  and  _390
REMARK  172  A    between atoms: _390  and  _391
REMARK  173  A    between atoms: _390  and  _393
REMARK  174  A    between atoms: _393  and  _394
REMARK  175  A    between atoms: _399  and  _400
REMARK  176  A    between atoms: _402  and  _404
REMARK  177  A    between atoms: _404  and  _405
REMARK  178  A    between atoms: _404  and  _407
REMARK  179  A    between atoms: _407  and  _408
REMARK  180  A    between atoms: _411  and  _413
REMARK  181  A    between atoms: _413  and  _414
REMARK  182  A    between atoms: _413  and  _416
REMARK  183  A    between atoms: _416  and  _417
REMARK  184  A    between atoms: _417  and  _418
REMARK  185  A    between atoms: _418  and  _419
REMARK  186  A    between atoms: _419  and  _420
REMARK  187  A    between atoms: _425  and  _426
REMARK  188  A    between atoms: _431  and  _433
REMARK  189  A    between atoms: _433  and  _434
REMARK  190  A    between atoms: _433  and  _436
REMARK  191  A    between atoms: _436  and  _437
REMARK  192  A    between atoms: _437  and  _438
REMARK  193  A    between atoms: _441  and  _443
REMARK  194  A    between atoms: _443  and  _444
REMARK  195  A    between atoms: _443  and  _446
REMARK  196  A    between atoms: _446  and  _447
REMARK  197  A    between atoms: _452  and  _454
REMARK  198  A    between atoms: _454  and  _455
REMARK  199  A    between atoms: _454  and  _457
REMARK  200  A    between atoms: _457  and  _458
REMARK  201  A    between atoms: _461  and  _463
REMARK  202  A    between atoms: _463  and  _464
REMARK  203  A    between atoms: _463  and  _466
REMARK  204  A    between atoms: _466  and  _467
REMARK  205  A    between atoms: _470  and  _472
REMARK  206  A    between atoms: _472  and  _473
REMARK  207  A    between atoms: _472  and  _475
REMARK  208  A    between atoms: _475  and  _476
REMARK  209  A    between atoms: _479  and  _481
REMARK  210  A    between atoms: _481  and  _482
REMARK  211  A    between atoms: _481  and  _484
REMARK  212  A    between atoms: _484  and  _485
REMARK  213  A    between atoms: _485  and  _486
REMARK  214  A    between atoms: _491  and  _493
REMARK  215  A    between atoms: _493  and  _494
REMARK  216  A    between atoms: _493  and  _496
REMARK  217  A    between atoms: _499  and  _501
REMARK  218  A    between atoms: _501  and  _502
REMARK  219  A    between atoms: _501  and  _504
REMARK  220  A    between atoms: _504  and  _505
REMARK  221  A    between atoms: _508  and  _510
REMARK  222  A    between atoms: _510  and  _511
REMARK  223  A    between atoms: _510  and  _513
REMARK  224  A    between atoms: _513  and  _514
REMARK  225  A    between atoms: _517  and  _519
REMARK  226  A    between atoms: _519  and  _520
REMARK  227  A    between atoms: _519  and  _522
REMARK  228  A    between atoms: _522  and  _523
REMARK  229  A    between atoms: _529  and  _531
REMARK  230  A    between atoms: _531  and  _532
REMARK  231  A    between atoms: _534  and  _536
REMARK  232  A    between atoms: _536  and  _537
REMARK  233  A    between atoms: _536  and  _539
REMARK  234  A    between atoms: _539  and  _540
REMARK  235  A    between atoms: _546  and  _548
REMARK  236  A    between atoms: _548  and  _549
REMARK  237  A    between atoms: _552  and  _554
REMARK  238  A    between atoms: _554  and  _555
REMARK  239  A    between atoms: _557  and  _559
REMARK  240  A    between atoms: _559  and  _560
REMARK  241  A    between atoms: _559  and  _562
REMARK  242  A    between atoms: _562  and  _563
REMARK  243  A    between atoms: _566  and  _568
REMARK  244  A    between atoms: _568  and  _569
REMARK  245  A    between atoms: _568  and  _571
REMARK  246  A    between atoms: _571  and  _572
REMARK  247  A    between atoms: _578  and  _580
REMARK  248  A    between atoms: _580  and  _581
REMARK  249  A    between atoms: _580  and  _583
REMARK  250  A    between atoms: _583  and  _584
REMARK  251  A    between atoms: _589  and  _590
REMARK                            x       y       z     vdW  Elec       q    Type
REMARK                         _______ _______ _______ _____ _____    ______ ____
ROOT
ATOM      1  O   HOH     1      14.159   5.872  -3.498  0.00  0.00    +0.000 OA
ENDROOT
TORSDOF 0
REMARK  Name = ../refined-set-2016/1xh5/1xh5_pocket.pdb
REMARK  251 active torsions:
REMARK  status: ('A' for Active; 'I' for Inactive)
REMARK    1  A    between atoms: _1  and  _3
REMARK    2  A    between atoms: _3  and  _4
REMARK    3  A    between atoms: _3  and  _6
REMARK    4  A    between atoms: _6  and  _7
REMARK    5  A    between atoms: _10  and  _12
REMARK    6  A    between atoms: _12  and  _13
REMARK    7  A    between atoms: _12  and  _15
REMARK    8  A    between atoms: _15  and  _16
REMARK    9  A    between atoms: _19  and  _21
REMARK   10  A    between atoms: _21  and  _22
REMARK   11  A    between atoms: _24  and  _26
REMARK   12  A    between atoms: _26  and  _27
REMARK   13  A    between atoms: _26  and  _29
REMARK   14  A    between atoms: _29  and  _30
REMARK   15  A    between atoms: _33  and  _35
REMARK   16  A    between atoms: _35  and  _36
REMARK   17  A    between atoms: _38  and  _40
REMARK   18  A    between atoms: _40  and  _41
REMARK   19  A    between atoms: _40  and  _43
REMARK   20  A    between atoms: _43  and  _44
REMARK   21  A    between atoms: _46  and  _48
REMARK   22  A    between atoms: _48  and  _49
REMARK   23  A    between atoms: _48  and  _51
REMARK   24  A    between atoms: _51  and  _52
REMARK   25  A    between atoms: _58  and  _60
REMARK   26  A    between atoms: _60  and  _61
REMARK   27  A    between atoms: _63  and  _65
REMARK   28  A    between atoms: _65  and  _66
REMARK   29  A    between atoms: _65  and  _68
REMARK   30  A    between atoms: _68  and  _69
REMARK   31  A    between atoms: _69  and  _70
REMARK   32  A    between atoms: _70  and  _71
REMARK   33  A    between atoms: _80  and  _82
REMARK   34  A    between atoms: _82  and  _83
REMARK   35  A    between atoms: _82  and  _85
REMARK   36  A    between atoms: _88  and  _90
REMARK   37  A    between atoms: _90  and  _91
REMARK   38  A    between atoms: _90  and  _93
REMARK   39  A    between atoms: _93  and  _94
REMARK   40  A    between atoms: _94  and  _95
REMARK   41  A    between atoms: _97  and  _99
REMARK   42  A    between atoms: _99  and  _100
REMARK   43  A    between atoms: _99  and  _102
REMARK   44  A    between atoms: _102  and  _103
REMARK   45  A    between atoms: _106  and  _108
REMARK   46  A    between atoms: _108  and  _109
REMARK   47  A    between atoms: _108  and  _111
REMARK   48  A    between atoms: _111  and  _112
REMARK   49  A    between atoms: _117  and  _118
REMARK   50  A    between atoms: _120  and  _122
REMARK   51  A    between atoms: _122  and  _123
REMARK   52  A    between atoms: _126  and  _128
REMARK   53  A    between atoms: _128  and  _129
REMARK   54  A    between atoms: _128  and  _131
REMARK   55  A    between atoms: _131  and  _132
REMARK   56  A    between atoms: _132  and  _133
REMARK   57  A    between atoms: _135  and  _137
REMARK   58  A    between atoms: _137  and  _138
REMARK   59  A    between atoms: _137  and  _140
REMARK   60  A    between atoms: _140  and  _141
REMARK   61  A    between atoms: _141  and  _142
REMARK   62  A    between atoms: _142  and  _143
REMARK   63  A    between atoms: _143  and  _144
REMARK   64  A    between atoms: _148  and  _150
REMARK   65  A    between atoms: _150  and  _151
REMARK   66  A    between atoms: _150  and  _153
REMARK   67  A    between atoms: _153  and  _154
REMARK   68  A    between atoms: _157  and  _159
REMARK   69  A    between atoms: _159  and  _160
REMARK   70  A    between atoms: _159  and  _162
REMARK   71  A    between atoms: _162  and  _163
REMARK   72  A    between atoms: _166  and  _168
REMARK   73  A    between atoms: _168  and  _169
REMARK   74  A    between atoms: _168  and  _171
REMARK   75  A    between atoms: _171  and  _172
REMARK   76  A    between atoms: _175  and  _177
REMARK   77  A    between atoms: _177  and  _178
REMARK   78  A    between atoms: _177  and  _180
REMARK   79  A    between atoms: _180  and  _181
REMARK   80  A    between atoms: _181  and  _182
REMARK   81  A    between atoms: _182  and  _183
REMARK   82  A    between atoms: _183  and  _184
REMARK   83  A    between atoms: _188  and  _190
REMARK   84  A    between atoms: _190  and  _191
REMARK   85  A    between atoms: _190  and  _193
REMARK   86  A    between atoms: _196  and  _198
REMARK   87  A    between atoms: _198  and  _199
REMARK   88  A    between atoms: _198  and  _201
REMARK   89  A    between atoms: _201  and  _202
REMARK   90  A    between atoms: _205  and  _207
REMARK   91  A    between atoms: _207  and  _208
REMARK   92  A    between atoms: _207  and  _210
REMARK   93  A    between atoms: _210  and  _211
REMARK   94  A    between atoms: _211  and  _212
REMARK   95  A    between atoms: _212  and  _213
REMARK   96  A    between atoms: _213  and  _214
REMARK   97  A    between atoms: _218  and  _220
REMARK   98  A    between atoms: _220  and  _221
REMARK   99  A    between atoms: _220  and  _223
REMARK  100  A    between atoms: _223  and  _224
REMARK  101  A    between atoms: _224  and  _225
REMARK  102  A    between atoms: _230  and  _232
REMARK  103  A    between atoms: _232  and  _233
REMARK  104  A    between atoms: _232  and  _235
REMARK  105  A    between atoms: _235  and  _236
REMARK  106  A    between atoms: _241  and  _243
REMARK  107  A    between atoms: _243  and  _244
REMARK  108  A    between atoms: _243  and  _246
REMARK  109  A    between atoms: _246  and  _247
REMARK  110  A    between atoms: _250  and  _252
REMARK  111  A    between atoms: _252  and  _253
REMARK  112  A    between atoms: _252  and  _255
REMARK  113  A    between atoms: _255  and  _256
REMARK  114  A    between atoms: _256  and  _257
REMARK  115  A    between atoms: _260  and  _262
REMARK  116  A    between atoms: _262  and  _263
REMARK  117  A    between atoms: _262  and  _265
REMARK  118  A    between atoms: _265  and  _266
REMARK  119  A    between atoms: _269  and  _271
REMARK  120  A    between atoms: _271  and  _272
REMARK  121  A    between atoms: _271  and  _274
REMARK  122  A    between atoms: _277  and  _279
REMARK  123  A    between atoms: _279  and  _280
REMARK  124  A    between atoms: _279  and  _282
REMARK  125  A    between atoms: _282  and  _283
REMARK  126  A    between atoms: _283  and  _284
REMARK  127  A    between atoms: _284  and  _285
REMARK  128  A    between atoms: _285  and  _286
REMARK  129  A    between atoms: _290  and  _292
REMARK  130  A    between atoms: _292  and  _293
REMARK  131  A    between atoms: _292  and  _295
REMARK  132  A    between atoms: _295  and  _296
REMARK  133  A    between atoms: _296  and  _297
REMARK  134  A    between atoms: _299  and  _301
REMARK  135  A    between atoms: _301  and  _302
REMARK  136  A    between atoms: _301  and  _304
REMARK  137  A    between atoms: _304  and  _305
REMARK  138  A    between atoms: _305  and  _306
REMARK  139  A    between atoms: _308  and  _310
REMARK  140  A    between atoms: _310  and  _311
REMARK  141  A    between atoms: _310  and  _313
REMARK  142  A    between atoms: _313  and  _314
REMARK  143  A    between atoms: _314  and  _315
REMARK  144  A    between atoms: _318  and  _320
REMARK  145  A    between atoms: _320  and  _321
REMARK  146  A    between atoms: _320  and  _323
REMARK  147  A    between atoms: _323  and  _324
REMARK  148  A    between atoms: _329  and  _330
REMARK  149  A    between atoms: _332  and  _334
REMARK  150  A    between atoms: _334  and  _335
REMARK  151  A    between atoms: _334  and  _337
REMARK  152  A    between atoms: _341  and  _342
REMARK  153  A    between atoms: _347  and  _349
REMARK  154  A    between atoms: _349  and  _350
REMARK  155  A    between atoms: _352  and  _354
REMARK  156  A    between atoms: _354  and  _355
REMARK  157  A    between atoms: _357  and  _359
REMARK  158  A    between atoms: _359  and  _360
REMARK  159  A    between atoms: _359  and  _362
REMARK  160  A    between atoms: _362  and  _363
REMARK  161  A    between atoms: _363  and  _364
REMARK  162  A    between atoms: _367  and  _369
REMARK  163  A    between atoms: _369  and  _370
REMARK  164  A    between atoms: _369  and  _372
REMARK  165  A    between atoms: _372  and  _373
REMARK  166  A    between atoms: _373  and  _374
REMARK  167  A    between atoms: _376  and  _378
REMARK  168  A    between atoms: _378  and  _379
REMARK  169  A    between atoms: _378  and  _381
REMARK  170  A    between atoms: _381  and  _382
REMARK  171  A    between atoms: _388  and  _390
REMARK  172  A    between atoms: _390  and  _391
REMARK  173  A    between atoms: _390  and  _393
REMARK  174  A    between atoms: _393  and  _394
REMARK  175  A    between atoms: _399  and  _400
REMARK  176  A    between atoms: _402  and  _404
REMARK  177  A    between atoms: _404  and  _405
REMARK  178  A    between atoms: _404  and  _407
REMARK  179  A    between atoms: _407  and  _408
REMARK  180  A    between atoms: _411  and  _413
REMARK  181  A    between atoms: _413  and  _414
REMARK  182  A    between atoms: _413  and  _416
REMARK  183  A    between atoms: _416  and  _417
REMARK  184  A    between atoms: _417  and  _418
REMARK  185  A    between atoms: _418  and  _419
REMARK  186  A    between atoms: _419  and  _420
REMARK  187  A    between atoms: _425  and  _426
REMARK  188  A    between atoms: _431  and  _433
REMARK  189  A    between atoms: _433  and  _434
REMARK  190  A    between atoms: _433  and  _436
REMARK  191  A    between atoms: _436  and  _437
REMARK  192  A    between atoms: _437  and  _438
REMARK  193  A    between atoms: _441  and  _443
REMARK  194  A    between atoms: _443  and  _444
REMARK  195  A    between atoms: _443  and  _446
REMARK  196  A    between atoms: _446  and  _447
REMARK  197  A    between atoms: _452  and  _454
REMARK  198  A    between atoms: _454  and  _455
REMARK  199  A    between atoms: _454  and  _457
REMARK  200  A    between atoms: _457  and  _458
REMARK  201  A    between atoms: _461  and  _463
REMARK  202  A    between atoms: _463  and  _464
REMARK  203  A    between atoms: _463  and  _466
REMARK  204  A    between atoms: _466  and  _467
REMARK  205  A    between atoms: _470  and  _472
REMARK  206  A    between atoms: _472  and  _473
REMARK  207  A    between atoms: _472  and  _475
REMARK  208  A    between atoms: _475  and  _476
REMARK  209  A    between atoms: _479  and  _481
REMARK  210  A    between atoms: _481  and  _482
REMARK  211  A    between atoms: _481  and  _484
REMARK  212  A    between atoms: _484  and  _485
REMARK  213  A    between atoms: _485  and  _486
REMARK  214  A    between atoms: _491  and  _493
REMARK  215  A    between atoms: _493  and  _494
REMARK  216  A    between atoms: _493  and  _496
REMARK  217  A    between atoms: _499  and  _501
REMARK  218  A    between atoms: _501  and  _502
REMARK  219  A    between atoms: _501  and  _504
REMARK  220  A    between atoms: _504  and  _505
REMARK  221  A    between atoms: _508  and  _510
REMARK  222  A    between atoms: _510  and  _511
REMARK  223  A    between atoms: _510  and  _513
REMARK  224  A    between atoms: _513  and  _514
REMARK  225  A    between atoms: _517  and  _519
REMARK  226  A    between atoms: _519  and  _520
REMARK  227  A    between atoms: _519  and  _522
REMARK  228  A    between atoms: _522  and  _523
REMARK  229  A    between atoms: _529  and  _531
REMARK  230  A    between atoms: _531  and  _532
REMARK  231  A    between atoms: _534  and  _536
REMARK  232  A    between atoms: _536  and  _537
REMARK  233  A    between atoms: _536  and  _539
REMARK  234  A    between atoms: _539  and  _540
REMARK  235  A    between atoms: _546  and  _548
REMARK  236  A    between atoms: _548  and  _549
REMARK  237  A    between atoms: _552  and  _554
REMARK  238  A    between atoms: _554  and  _555
REMARK  239  A    between atoms: _557  and  _559
REMARK  240  A    between atoms: _559  and  _560
REMARK  241  A    between atoms: _559  and  _562
REMARK  242  A    between atoms: _562  and  _563
REMARK  243  A    between atoms: _566  and  _568
REMARK  244  A    between atoms: _568  and  _569
REMARK  245  A    between atoms: _568  and  _571
REMARK  246  A    between atoms: _571  and  _572
REMARK  247  A    between atoms: _578  and  _580
REMARK  248  A    between atoms: _580  and  _581
REMARK  249  A    between atoms: _580  and  _583
REMARK  250  A    between atoms: _583  and  _584
REMARK  251  A    between atoms: _589  and  _590
REMARK                            x       y       z     vdW  Elec       q    Type
REMARK                         _______ _______ _______ _____ _____    ______ ____
ROOT
ATOM      1  O   HOH     1      -2.296   6.223  -0.942  0.00  0.00    +0.000 OA
ENDROOT
TORSDOF 0
REMARK  Name = ../refined-set-2016/1xh5/1xh5_pocket.pdb
REMARK  251 active torsions:
REMARK  status: ('A' for Active; 'I' for Inactive)
REMARK    1  A    between atoms: _1  and  _3
REMARK    2  A    between atoms: _3  and  _4
REMARK    3  A    between atoms: _3  and  _6
REMARK    4  A    between atoms: _6  and  _7
REMARK    5  A    between atoms: _10  and  _12
REMARK    6  A    between atoms: _12  and  _13
REMARK    7  A    between atoms: _12  and  _15
REMARK    8  A    between atoms: _15  and  _16
REMARK    9  A    between atoms: _19  and  _21
REMARK   10  A    between atoms: _21  and  _22
REMARK   11  A    between atoms: _24  and  _26
REMARK   12  A    between atoms: _26  and  _27
REMARK   13  A    between atoms: _26  and  _29
REMARK   14  A    between atoms: _29  and  _30
REMARK   15  A    between atoms: _33  and  _35
REMARK   16  A    between atoms: _35  and  _36
REMARK   17  A    between atoms: _38  and  _40
REMARK   18  A    between atoms: _40  and  _41
REMARK   19  A    between atoms: _40  and  _43
REMARK   20  A    between atoms: _43  and  _44
REMARK   21  A    between atoms: _46  and  _48
REMARK   22  A    between atoms: _48  and  _49
REMARK   23  A    between atoms: _48  and  _51
REMARK   24  A    between atoms: _51  and  _52
REMARK   25  A    between atoms: _58  and  _60
REMARK   26  A    between atoms: _60  and  _61
REMARK   27  A    between atoms: _63  and  _65
REMARK   28  A    between atoms: _65  and  _66
REMARK   29  A    between atoms: _65  and  _68
REMARK   30  A    between atoms: _68  and  _69
REMARK   31  A    between atoms: _69  and  _70
REMARK   32  A    between atoms: _70  and  _71
REMARK   33  A    between atoms: _80  and  _82
REMARK   34  A    between atoms: _82  and  _83
REMARK   35  A    between atoms: _82  and  _85
REMARK   36  A    between atoms: _88  and  _90
REMARK   37  A    between atoms: _90  and  _91
REMARK   38  A    between atoms: _90  and  _93
REMARK   39  A    between atoms: _93  and  _94
REMARK   40  A    between atoms: _94  and  _95
REMARK   41  A    between atoms: _97  and  _99
REMARK   42  A    between atoms: _99  and  _100
REMARK   43  A    between atoms: _99  and  _102
REMARK   44  A    between atoms: _102  and  _103
REMARK   45  A    between atoms: _106  and  _108
REMARK   46  A    between atoms: _108  and  _109
REMARK   47  A    between atoms: _108  and  _111
REMARK   48  A    between atoms: _111  and  _112
REMARK   49  A    between atoms: _117  and  _118
REMARK   50  A    between atoms: _120  and  _122
REMARK   51  A    between atoms: _122  and  _123
REMARK   52  A    between atoms: _126  and  _128
REMARK   53  A    between atoms: _128  and  _129
REMARK   54  A    between atoms: _128  and  _131
REMARK   55  A    between atoms: _131  and  _132
REMARK   56  A    between atoms: _132  and  _133
REMARK   57  A    between atoms: _135  and  _137
REMARK   58  A    between atoms: _137  and  _138
REMARK   59  A    between atoms: _137  and  _140
REMARK   60  A    between atoms: _140  and  _141
REMARK   61  A    between atoms: _141  and  _142
REMARK   62  A    between atoms: _142  and  _143
REMARK   63  A    between atoms: _143  and  _144
REMARK   64  A    between atoms: _148  and  _150
REMARK   65  A    between atoms: _150  and  _151
REMARK   66  A    between atoms: _150  and  _153
REMARK   67  A    between atoms: _153  and  _154
REMARK   68  A    between atoms: _157  and  _159
REMARK   69  A    between atoms: _159  and  _160
REMARK   70  A    between atoms: _159  and  _162
REMARK   71  A    between atoms: _162  and  _163
REMARK   72  A    between atoms: _166  and  _168
REMARK   73  A    between atoms: _168  and  _169
REMARK   74  A    between atoms: _168  and  _171
REMARK   75  A    between atoms: _171  and  _172
REMARK   76  A    between atoms: _175  and  _177
REMARK   77  A    between atoms: _177  and  _178
REMARK   78  A    between atoms: _177  and  _180
REMARK   79  A    between atoms: _180  and  _181
REMARK   80  A    between atoms: _181  and  _182
REMARK   81  A    between atoms: _182  and  _183
REMARK   82  A    between atoms: _183  and  _184
REMARK   83  A    between atoms: _188  and  _190
REMARK   84  A    between atoms: _190  and  _191
REMARK   85  A    between atoms: _190  and  _193
REMARK   86  A    between atoms: _196  and  _198
REMARK   87  A    between atoms: _198  and  _199
REMARK   88  A    between atoms: _198  and  _201
REMARK   89  A    between atoms: _201  and  _202
REMARK   90  A    between atoms: _205  and  _207
REMARK   91  A    between atoms: _207  and  _208
REMARK   92  A    between atoms: _207  and  _210
REMARK   93  A    between atoms: _210  and  _211
REMARK   94  A    between atoms: _211  and  _212
REMARK   95  A    between atoms: _212  and  _213
REMARK   96  A    between atoms: _213  and  _214
REMARK   97  A    between atoms: _218  and  _220
REMARK   98  A    between atoms: _220  and  _221
REMARK   99  A    between atoms: _220  and  _223
REMARK  100  A    between atoms: _223  and  _224
REMARK  101  A    between atoms: _224  and  _225
REMARK  102  A    between atoms: _230  and  _232
REMARK  103  A    between atoms: _232  and  _233
REMARK  104  A    between atoms: _232  and  _235
REMARK  105  A    between atoms: _235  and  _236
REMARK  106  A    between atoms: _241  and  _243
REMARK  107  A    between atoms: _243  and  _244
REMARK  108  A    between atoms: _243  and  _246
REMARK  109  A    between atoms: _246  and  _247
REMARK  110  A    between atoms: _250  and  _252
REMARK  111  A    between atoms: _252  and  _253
REMARK  112  A    between atoms: _252  and  _255
REMARK  113  A    between atoms: _255  and  _256
REMARK  114  A    between atoms: _256  and  _257
REMARK  115  A    between atoms: _260  and  _262
REMARK  116  A    between atoms: _262  and  _263
REMARK  117  A    between atoms: _262  and  _265
REMARK  118  A    between atoms: _265  and  _266
REMARK  119  A    between atoms: _269  and  _271
REMARK  120  A    between atoms: _271  and  _272
REMARK  121  A    between atoms: _271  and  _274
REMARK  122  A    between atoms: _277  and  _279
REMARK  123  A    between atoms: _279  and  _280
REMARK  124  A    between atoms: _279  and  _282
REMARK  125  A    between atoms: _282  and  _283
REMARK  126  A    between atoms: _283  and  _284
REMARK  127  A    between atoms: _284  and  _285
REMARK  128  A    between atoms: _285  and  _286
REMARK  129  A    between atoms: _290  and  _292
REMARK  130  A    between atoms: _292  and  _293
REMARK  131  A    between atoms: _292  and  _295
REMARK  132  A    between atoms: _295  and  _296
REMARK  133  A    between atoms: _296  and  _297
REMARK  134  A    between atoms: _299  and  _301
REMARK  135  A    between atoms: _301  and  _302
REMARK  136  A    between atoms: _301  and  _304
REMARK  137  A    between atoms: _304  and  _305
REMARK  138  A    between atoms: _305  and  _306
REMARK  139  A    between atoms: _308  and  _310
REMARK  140  A    between atoms: _310  and  _311
REMARK  141  A    between atoms: _310  and  _313
REMARK  142  A    between atoms: _313  and  _314
REMARK  143  A    between atoms: _314  and  _315
REMARK  144  A    between atoms: _318  and  _320
REMARK  145  A    between atoms: _320  and  _321
REMARK  146  A    between atoms: _320  and  _323
REMARK  147  A    between atoms: _323  and  _324
REMARK  148  A    between atoms: _329  and  _330
REMARK  149  A    between atoms: _332  and  _334
REMARK  150  A    between atoms: _334  and  _335
REMARK  151  A    between atoms: _334  and  _337
REMARK  152  A    between atoms: _341  and  _342
REMARK  153  A    between atoms: _347  and  _349
REMARK  154  A    between atoms: _349  and  _350
REMARK  155  A    between atoms: _352  and  _354
REMARK  156  A    between atoms: _354  and  _355
REMARK  157  A    between atoms: _357  and  _359
REMARK  158  A    between atoms: _359  and  _360
REMARK  159  A    between atoms: _359  and  _362
REMARK  160  A    between atoms: _362  and  _363
REMARK  161  A    between atoms: _363  and  _364
REMARK  162  A    between atoms: _367  and  _369
REMARK  163  A    between atoms: _369  and  _370
REMARK  164  A    between atoms: _369  and  _372
REMARK  165  A    between atoms: _372  and  _373
REMARK  166  A    between atoms: _373  and  _374
REMARK  167  A    between atoms: _376  and  _378
REMARK  168  A    between atoms: _378  and  _379
REMARK  169  A    between atoms: _378  and  _381
REMARK  170  A    between atoms: _381  and  _382
REMARK  171  A    between atoms: _388  and  _390
REMARK  172  A    between atoms: _390  and  _391
REMARK  173  A    between atoms: _390  and  _393
REMARK  174  A    between atoms: _393  and  _394
REMARK  175  A    between atoms: _399  and  _400
REMARK  176  A    between atoms: _402  and  _404
REMARK  177  A    between atoms: _404  and  _405
REMARK  178  A    between atoms: _404  and  _407
REMARK  179  A    between atoms: _407  and  _408
REMARK  180  A    between atoms: _411  and  _413
REMARK  181  A    between atoms: _413  and  _414
REMARK  182  A    between atoms: _413  and  _416
REMARK  183  A    between atoms: _416  and  _417
REMARK  184  A    between atoms: _417  and  _418
REMARK  185  A    between atoms: _418  and  _419
REMARK  186  A    between atoms: _419  and  _420
REMARK  187  A    between atoms: _425  and  _426
REMARK  188  A    between atoms: _431  and  _433
REMARK  189  A    between atoms: _433  and  _434
REMARK  190  A    between atoms: _433  and  _436
REMARK  191  A    between atoms: _436  and  _437
REMARK  192  A    between atoms: _437  and  _438
REMARK  193  A    between atoms: _441  and  _443
REMARK  194  A    between atoms: _443  and  _444
REMARK  195  A    between atoms: _443  and  _446
REMARK  196  A    between atoms: _446  and  _447
REMARK  197  A    between atoms: _452  and  _454
REMARK  198  A    between atoms: _454  and  _455
REMARK  199  A    between atoms: _454  and  _457
REMARK  200  A    between atoms: _457  and  _458
REMARK  201  A    between atoms: _461  and  _463
REMARK  202  A    between atoms: _463  and  _464
REMARK  203  A    between atoms: _463  and  _466
REMARK  204  A    between atoms: _466  and  _467
REMARK  205  A    between atoms: _470  and  _472
REMARK  206  A    between atoms: _472  and  _473
REMARK  207  A    between atoms: _472  and  _475
REMARK  208  A    between atoms: _475  and  _476
REMARK  209  A    between atoms: _479  and  _481
REMARK  210  A    between atoms: _481  and  _482
REMARK  211  A    between atoms: _481  and  _484
REMARK  212  A    between atoms: _484  and  _485
REMARK  213  A    between atoms: _485  and  _486
REMARK  214  A    between atoms: _491  and  _493
REMARK  215  A    between atoms: _493  and  _494
REMARK  216  A    between atoms: _493  and  _496
REMARK  217  A    between atoms: _499  and  _501
REMARK  218  A    between atoms: _501  and  _502
REMARK  219  A    between atoms: _501  and  _504
REMARK  220  A    between atoms: _504  and  _505
REMARK  221  A    between atoms: _508  and  _510
REMARK  222  A    between atoms: _510  and  _511
REMARK  223  A    between atoms: _510  and  _513
REMARK  224  A    between atoms: _513  and  _514
REMARK  225  A    between atoms: _517  and  _519
REMARK  226  A    between atoms: _519  and  _520
REMARK  227  A    between atoms: _519  and  _522
REMARK  228  A    between atoms: _522  and  _523
REMARK  229  A    between atoms: _529  and  _531
REMARK  230  A    between atoms: _531  and  _532
REMARK  231  A    between atoms: _534  and  _536
REMARK  232  A    between atoms: _536  and  _537
REMARK  233  A    between atoms: _536  and  _539
REMARK  234  A    between atoms: _539  and  _540
REMARK  235  A    between atoms: _546  and  _548
REMARK  236  A    between atoms: _548  and  _549
REMARK  237  A    between atoms: _552  and  _554
REMARK  238  A    between atoms: _554  and  _555
REMARK  239  A    between atoms: _557  and  _559
REMARK  240  A    between atoms: _559  and  _560
REMARK  241  A    between atoms: _559  and  _562
REMARK  242  A    between atoms: _562  and  _563
REMARK  243  A    between atoms: _566  and  _568
REMARK  244  A    between atoms: _568  and  _569
REMARK  245  A    between atoms: _568  and  _571
REMARK  246  A    between atoms: _571  and  _572
REMARK  247  A    between atoms: _578  and  _580
REMARK  248  A    between atoms: _580  and  _581
REMARK  249  A    between atoms: _580  and  _583
REMARK  250  A    between atoms: _583  and  _584
REMARK  251  A    between atoms: _589  and  _590
REMARK                            x       y       z     vdW  Elec       q    Type
REMARK                         _______ _______ _______ _____ _____    ______ ____
ROOT
ATOM      1  O   HOH     1      10.021   8.404  10.951  0.00  0.00    +0.000 OA
ENDROOT
TORSDOF 0
REMARK  Name = ../refined-set-2016/1xh5/1xh5_pocket.pdb
REMARK  251 active torsions:
REMARK  status: ('A' for Active; 'I' for Inactive)
REMARK    1  A    between atoms: _1  and  _3
REMARK    2  A    between atoms: _3  and  _4
REMARK    3  A    between atoms: _3  and  _6
REMARK    4  A    between atoms: _6  and  _7
REMARK    5  A    between atoms: _10  and  _12
REMARK    6  A    between atoms: _12  and  _13
REMARK    7  A    between atoms: _12  and  _15
REMARK    8  A    between atoms: _15  and  _16
REMARK    9  A    between atoms: _19  and  _21
REMARK   10  A    between atoms: _21  and  _22
REMARK   11  A    between atoms: _24  and  _26
REMARK   12  A    between atoms: _26  and  _27
REMARK   13  A    between atoms: _26  and  _29
REMARK   14  A    between atoms: _29  and  _30
REMARK   15  A    between atoms: _33  and  _35
REMARK   16  A    between atoms: _35  and  _36
REMARK   17  A    between atoms: _38  and  _40
REMARK   18  A    between atoms: _40  and  _41
REMARK   19  A    between atoms: _40  and  _43
REMARK   20  A    between atoms: _43  and  _44
REMARK   21  A    between atoms: _46  and  _48
REMARK   22  A    between atoms: _48  and  _49
REMARK   23  A    between atoms: _48  and  _51
REMARK   24  A    between atoms: _51  and  _52
REMARK   25  A    between atoms: _58  and  _60
REMARK   26  A    between atoms: _60  and  _61
REMARK   27  A    between atoms: _63  and  _65
REMARK   28  A    between atoms: _65  and  _66
REMARK   29  A    between atoms: _65  and  _68
REMARK   30  A    between atoms: _68  and  _69
REMARK   31  A    between atoms: _69  and  _70
REMARK   32  A    between atoms: _70  and  _71
REMARK   33  A    between atoms: _80  and  _82
REMARK   34  A    between atoms: _82  and  _83
REMARK   35  A    between atoms: _82  and  _85
REMARK   36  A    between atoms: _88  and  _90
REMARK   37  A    between atoms: _90  and  _91
REMARK   38  A    between atoms: _90  and  _93
REMARK   39  A    between atoms: _93  and  _94
REMARK   40  A    between atoms: _94  and  _95
REMARK   41  A    between atoms: _97  and  _99
REMARK   42  A    between atoms: _99  and  _100
REMARK   43  A    between atoms: _99  and  _102
REMARK   44  A    between atoms: _102  and  _103
REMARK   45  A    between atoms: _106  and  _108
REMARK   46  A    between atoms: _108  and  _109
REMARK   47  A    between atoms: _108  and  _111
REMARK   48  A    between atoms: _111  and  _112
REMARK   49  A    between atoms: _117  and  _118
REMARK   50  A    between atoms: _120  and  _122
REMARK   51  A    between atoms: _122  and  _123
REMARK   52  A    between atoms: _126  and  _128
REMARK   53  A    between atoms: _128  and  _129
REMARK   54  A    between atoms: _128  and  _131
REMARK   55  A    between atoms: _131  and  _132
REMARK   56  A    between atoms: _132  and  _133
REMARK   57  A    between atoms: _135  and  _137
REMARK   58  A    between atoms: _137  and  _138
REMARK   59  A    between atoms: _137  and  _140
REMARK   60  A    between atoms: _140  and  _141
REMARK   61  A    between atoms: _141  and  _142
REMARK   62  A    between atoms: _142  and  _143
REMARK   63  A    between atoms: _143  and  _144
REMARK   64  A    between atoms: _148  and  _150
REMARK   65  A    between atoms: _150  and  _151
REMARK   66  A    between atoms: _150  and  _153
REMARK   67  A    between atoms: _153  and  _154
REMARK   68  A    between atoms: _157  and  _159
REMARK   69  A    between atoms: _159  and  _160
REMARK   70  A    between atoms: _159  and  _162
REMARK   71  A    between atoms: _162  and  _163
REMARK   72  A    between atoms: _166  and  _168
REMARK   73  A    between atoms: _168  and  _169
REMARK   74  A    between atoms: _168  and  _171
REMARK   75  A    between atoms: _171  and  _172
REMARK   76  A    between atoms: _175  and  _177
REMARK   77  A    between atoms: _177  and  _178
REMARK   78  A    between atoms: _177  and  _180
REMARK   79  A    between atoms: _180  and  _181
REMARK   80  A    between atoms: _181  and  _182
REMARK   81  A    between atoms: _182  and  _183
REMARK   82  A    between atoms: _183  and  _184
REMARK   83  A    between atoms: _188  and  _190
REMARK   84  A    between atoms: _190  and  _191
REMARK   85  A    between atoms: _190  and  _193
REMARK   86  A    between atoms: _196  and  _198
REMARK   87  A    between atoms: _198  and  _199
REMARK   88  A    between atoms: _198  and  _201
REMARK   89  A    between atoms: _201  and  _202
REMARK   90  A    between atoms: _205  and  _207
REMARK   91  A    between atoms: _207  and  _208
REMARK   92  A    between atoms: _207  and  _210
REMARK   93  A    between atoms: _210  and  _211
REMARK   94  A    between atoms: _211  and  _212
REMARK   95  A    between atoms: _212  and  _213
REMARK   96  A    between atoms: _213  and  _214
REMARK   97  A    between atoms: _218  and  _220
REMARK   98  A    between atoms: _220  and  _221
REMARK   99  A    between atoms: _220  and  _223
REMARK  100  A    between atoms: _223  and  _224
REMARK  101  A    between atoms: _224  and  _225
REMARK  102  A    between atoms: _230  and  _232
REMARK  103  A    between atoms: _232  and  _233
REMARK  104  A    between atoms: _232  and  _235
REMARK  105  A    between atoms: _235  and  _236
REMARK  106  A    between atoms: _241  and  _243
REMARK  107  A    between atoms: _243  and  _244
REMARK  108  A    between atoms: _243  and  _246
REMARK  109  A    between atoms: _246  and  _247
REMARK  110  A    between atoms: _250  and  _252
REMARK  111  A    between atoms: _252  and  _253
REMARK  112  A    between atoms: _252  and  _255
REMARK  113  A    between atoms: _255  and  _256
REMARK  114  A    between atoms: _256  and  _257
REMARK  115  A    between atoms: _260  and  _262
REMARK  116  A    between atoms: _262  and  _263
REMARK  117  A    between atoms: _262  and  _265
REMARK  118  A    between atoms: _265  and  _266
REMARK  119  A    between atoms: _269  and  _271
REMARK  120  A    between atoms: _271  and  _272
REMARK  121  A    between atoms: _271  and  _274
REMARK  122  A    between atoms: _277  and  _279
REMARK  123  A    between atoms: _279  and  _280
REMARK  124  A    between atoms: _279  and  _282
REMARK  125  A    between atoms: _282  and  _283
REMARK  126  A    between atoms: _283  and  _284
REMARK  127  A    between atoms: _284  and  _285
REMARK  128  A    between atoms: _285  and  _286
REMARK  129  A    between atoms: _290  and  _292
REMARK  130  A    between atoms: _292  and  _293
REMARK  131  A    between atoms: _292  and  _295
REMARK  132  A    between atoms: _295  and  _296
REMARK  133  A    between atoms: _296  and  _297
REMARK  134  A    between atoms: _299  and  _301
REMARK  135  A    between atoms: _301  and  _302
REMARK  136  A    between atoms: _301  and  _304
REMARK  137  A    between atoms: _304  and  _305
REMARK  138  A    between atoms: _305  and  _306
REMARK  139  A    between atoms: _308  and  _310
REMARK  140  A    between atoms: _310  and  _311
REMARK  141  A    between atoms: _310  and  _313
REMARK  142  A    between atoms: _313  and  _314
REMARK  143  A    between atoms: _314  and  _315
REMARK  144  A    between atoms: _318  and  _320
REMARK  145  A    between atoms: _320  and  _321
REMARK  146  A    between atoms: _320  and  _323
REMARK  147  A    between atoms: _323  and  _324
REMARK  148  A    between atoms: _329  and  _330
REMARK  149  A    between atoms: _332  and  _334
REMARK  150  A    between atoms: _334  and  _335
REMARK  151  A    between atoms: _334  and  _337
REMARK  152  A    between atoms: _341  and  _342
REMARK  153  A    between atoms: _347  and  _349
REMARK  154  A    between atoms: _349  and  _350
REMARK  155  A    between atoms: _352  and  _354
REMARK  156  A    between atoms: _354  and  _355
REMARK  157  A    between atoms: _357  and  _359
REMARK  158  A    between atoms: _359  and  _360
REMARK  159  A    between atoms: _359  and  _362
REMARK  160  A    between atoms: _362  and  _363
REMARK  161  A    between atoms: _363  and  _364
REMARK  162  A    between atoms: _367  and  _369
REMARK  163  A    between atoms: _369  and  _370
REMARK  164  A    between atoms: _369  and  _372
REMARK  165  A    between atoms: _372  and  _373
REMARK  166  A    between atoms: _373  and  _374
REMARK  167  A    between atoms: _376  and  _378
REMARK  168  A    between atoms: _378  and  _379
REMARK  169  A    between atoms: _378  and  _381
REMARK  170  A    between atoms: _381  and  _382
REMARK  171  A    between atoms: _388  and  _390
REMARK  172  A    between atoms: _390  and  _391
REMARK  173  A    between atoms: _390  and  _393
REMARK  174  A    between atoms: _393  and  _394
REMARK  175  A    between atoms: _399  and  _400
REMARK  176  A    between atoms: _402  and  _404
REMARK  177  A    between atoms: _404  and  _405
REMARK  178  A    between atoms: _404  and  _407
REMARK  179  A    between atoms: _407  and  _408
REMARK  180  A    between atoms: _411  and  _413
REMARK  181  A    between atoms: _413  and  _414
REMARK  182  A    between atoms: _413  and  _416
REMARK  183  A    between atoms: _416  and  _417
REMARK  184  A    between atoms: _417  and  _418
REMARK  185  A    between atoms: _418  and  _419
REMARK  186  A    between atoms: _419  and  _420
REMARK  187  A    between atoms: _425  and  _426
REMARK  188  A    between atoms: _431  and  _433
REMARK  189  A    between atoms: _433  and  _434
REMARK  190  A    between atoms: _433  and  _436
REMARK  191  A    between atoms: _436  and  _437
REMARK  192  A    between atoms: _437  and  _438
REMARK  193  A    between atoms: _441  and  _443
REMARK  194  A    between atoms: _443  and  _444
REMARK  195  A    between atoms: _443  and  _446
REMARK  196  A    between atoms: _446  and  _447
REMARK  197  A    between atoms: _452  and  _454
REMARK  198  A    between atoms: _454  and  _455
REMARK  199  A    between atoms: _454  and  _457
REMARK  200  A    between atoms: _457  and  _458
REMARK  201  A    between atoms: _461  and  _463
REMARK  202  A    between atoms: _463  and  _464
REMARK  203  A    between atoms: _463  and  _466
REMARK  204  A    between atoms: _466  and  _467
REMARK  205  A    between atoms: _470  and  _472
REMARK  206  A    between atoms: _472  and  _473
REMARK  207  A    between atoms: _472  and  _475
REMARK  208  A    between atoms: _475  and  _476
REMARK  209  A    between atoms: _479  and  _481
REMARK  210  A    between atoms: _481  and  _482
REMARK  211  A    between atoms: _481  and  _484
REMARK  212  A    between atoms: _484  and  _485
REMARK  213  A    between atoms: _485  and  _486
REMARK  214  A    between atoms: _491  and  _493
REMARK  215  A    between atoms: _493  and  _494
REMARK  216  A    between atoms: _493  and  _496
REMARK  217  A    between atoms: _499  and  _501
REMARK  218  A    between atoms: _501  and  _502
REMARK  219  A    between atoms: _501  and  _504
REMARK  220  A    between atoms: _504  and  _505
REMARK  221  A    between atoms: _508  and  _510
REMARK  222  A    between atoms: _510  and  _511
REMARK  223  A    between atoms: _510  and  _513
REMARK  224  A    between atoms: _513  and  _514
REMARK  225  A    between atoms: _517  and  _519
REMARK  226  A    between atoms: _519  and  _520
REMARK  227  A    between atoms: _519  and  _522
REMARK  228  A    between atoms: _522  and  _523
REMARK  229  A    between atoms: _529  and  _531
REMARK  230  A    between atoms: _531  and  _532
REMARK  231  A    between atoms: _534  and  _536
REMARK  232  A    between atoms: _536  and  _537
REMARK  233  A    between atoms: _536  and  _539
REMARK  234  A    between atoms: _539  and  _540
REMARK  235  A    between atoms: _546  and  _548
REMARK  236  A    between atoms: _548  and  _549
REMARK  237  A    between atoms: _552  and  _554
REMARK  238  A    between atoms: _554  and  _555
REMARK  239  A    between atoms: _557  and  _559
REMARK  240  A    between atoms: _559  and  _560
REMARK  241  A    between atoms: _559  and  _562
REMARK  242  A    between atoms: _562  and  _563
REMARK  243  A    between atoms: _566  and  _568
REMARK  244  A    between atoms: _568  and  _569
REMARK  245  A    between atoms: _568  and  _571
REMARK  246  A    between atoms: _571  and  _572
REMARK  247  A    between atoms: _578  and  _580
REMARK  248  A    between atoms: _580  and  _581
REMARK  249  A    between atoms: _580  and  _583
REMARK  250  A    between atoms: _583  and  _584
REMARK  251  A    between atoms: _589  and  _590
REMARK                            x       y       z     vdW  Elec       q    Type
REMARK                         _______ _______ _______ _____ _____    ______ ____
ROOT
ATOM      1  O   HOH     1      -3.007   6.833   4.472  0.00  0.00    +0.000 OA
ENDROOT
TORSDOF 0
REMARK  Name = ../refined-set-2016/1xh5/1xh5_pocket.pdb
REMARK  251 active torsions:
REMARK  status: ('A' for Active; 'I' for Inactive)
REMARK    1  A    between atoms: _1  and  _3
REMARK    2  A    between atoms: _3  and  _4
REMARK    3  A    between atoms: _3  and  _6
REMARK    4  A    between atoms: _6  and  _7
REMARK    5  A    between atoms: _10  and  _12
REMARK    6  A    between atoms: _12  and  _13
REMARK    7  A    between atoms: _12  and  _15
REMARK    8  A    between atoms: _15  and  _16
REMARK    9  A    between atoms: _19  and  _21
REMARK   10  A    between atoms: _21  and  _22
REMARK   11  A    between atoms: _24  and  _26
REMARK   12  A    between atoms: _26  and  _27
REMARK   13  A    between atoms: _26  and  _29
REMARK   14  A    between atoms: _29  and  _30
REMARK   15  A    between atoms: _33  and  _35
REMARK   16  A    between atoms: _35  and  _36
REMARK   17  A    between atoms: _38  and  _40
REMARK   18  A    between atoms: _40  and  _41
REMARK   19  A    between atoms: _40  and  _43
REMARK   20  A    between atoms: _43  and  _44
REMARK   21  A    between atoms: _46  and  _48
REMARK   22  A    between atoms: _48  and  _49
REMARK   23  A    between atoms: _48  and  _51
REMARK   24  A    between atoms: _51  and  _52
REMARK   25  A    between atoms: _58  and  _60
REMARK   26  A    between atoms: _60  and  _61
REMARK   27  A    between atoms: _63  and  _65
REMARK   28  A    between atoms: _65  and  _66
REMARK   29  A    between atoms: _65  and  _68
REMARK   30  A    between atoms: _68  and  _69
REMARK   31  A    between atoms: _69  and  _70
REMARK   32  A    between atoms: _70  and  _71
REMARK   33  A    between atoms: _80  and  _82
REMARK   34  A    between atoms: _82  and  _83
REMARK   35  A    between atoms: _82  and  _85
REMARK   36  A    between atoms: _88  and  _90
REMARK   37  A    between atoms: _90  and  _91
REMARK   38  A    between atoms: _90  and  _93
REMARK   39  A    between atoms: _93  and  _94
REMARK   40  A    between atoms: _94  and  _95
REMARK   41  A    between atoms: _97  and  _99
REMARK   42  A    between atoms: _99  and  _100
REMARK   43  A    between atoms: _99  and  _102
REMARK   44  A    between atoms: _102  and  _103
REMARK   45  A    between atoms: _106  and  _108
REMARK   46  A    between atoms: _108  and  _109
REMARK   47  A    between atoms: _108  and  _111
REMARK   48  A    between atoms: _111  and  _112
REMARK   49  A    between atoms: _117  and  _118
REMARK   50  A    between atoms: _120  and  _122
REMARK   51  A    between atoms: _122  and  _123
REMARK   52  A    between atoms: _126  and  _128
REMARK   53  A    between atoms: _128  and  _129
REMARK   54  A    between atoms: _128  and  _131
REMARK   55  A    between atoms: _131  and  _132
REMARK   56  A    between atoms: _132  and  _133
REMARK   57  A    between atoms: _135  and  _137
REMARK   58  A    between atoms: _137  and  _138
REMARK   59  A    between atoms: _137  and  _140
REMARK   60  A    between atoms: _140  and  _141
REMARK   61  A    between atoms: _141  and  _142
REMARK   62  A    between atoms: _142  and  _143
REMARK   63  A    between atoms: _143  and  _144
REMARK   64  A    between atoms: _148  and  _150
REMARK   65  A    between atoms: _150  and  _151
REMARK   66  A    between atoms: _150  and  _153
REMARK   67  A    between atoms: _153  and  _154
REMARK   68  A    between atoms: _157  and  _159
REMARK   69  A    between atoms: _159  and  _160
REMARK   70  A    between atoms: _159  and  _162
REMARK   71  A    between atoms: _162  and  _163
REMARK   72  A    between atoms: _166  and  _168
REMARK   73  A    between atoms: _168  and  _169
REMARK   74  A    between atoms: _168  and  _171
REMARK   75  A    between atoms: _171  and  _172
REMARK   76  A    between atoms: _175  and  _177
REMARK   77  A    between atoms: _177  and  _178
REMARK   78  A    between atoms: _177  and  _180
REMARK   79  A    between atoms: _180  and  _181
REMARK   80  A    between atoms: _181  and  _182
REMARK   81  A    between atoms: _182  and  _183
REMARK   82  A    between atoms: _183  and  _184
REMARK   83  A    between atoms: _188  and  _190
REMARK   84  A    between atoms: _190  and  _191
REMARK   85  A    between atoms: _190  and  _193
REMARK   86  A    between atoms: _196  and  _198
REMARK   87  A    between atoms: _198  and  _199
REMARK   88  A    between atoms: _198  and  _201
REMARK   89  A    between atoms: _201  and  _202
REMARK   90  A    between atoms: _205  and  _207
REMARK   91  A    between atoms: _207  and  _208
REMARK   92  A    between atoms: _207  and  _210
REMARK   93  A    between atoms: _210  and  _211
REMARK   94  A    between atoms: _211  and  _212
REMARK   95  A    between atoms: _212  and  _213
REMARK   96  A    between atoms: _213  and  _214
REMARK   97  A    between atoms: _218  and  _220
REMARK   98  A    between atoms: _220  and  _221
REMARK   99  A    between atoms: _220  and  _223
REMARK  100  A    between atoms: _223  and  _224
REMARK  101  A    between atoms: _224  and  _225
REMARK  102  A    between atoms: _230  and  _232
REMARK  103  A    between atoms: _232  and  _233
REMARK  104  A    between atoms: _232  and  _235
REMARK  105  A    between atoms: _235  and  _236
REMARK  106  A    between atoms: _241  and  _243
REMARK  107  A    between atoms: _243  and  _244
REMARK  108  A    between atoms: _243  and  _246
REMARK  109  A    between atoms: _246  and  _247
REMARK  110  A    between atoms: _250  and  _252
REMARK  111  A    between atoms: _252  and  _253
REMARK  112  A    between atoms: _252  and  _255
REMARK  113  A    between atoms: _255  and  _256
REMARK  114  A    between atoms: _256  and  _257
REMARK  115  A    between atoms: _260  and  _262
REMARK  116  A    between atoms: _262  and  _263
REMARK  117  A    between atoms: _262  and  _265
REMARK  118  A    between atoms: _265  and  _266
REMARK  119  A    between atoms: _269  and  _271
REMARK  120  A    between atoms: _271  and  _272
REMARK  121  A    between atoms: _271  and  _274
REMARK  122  A    between atoms: _277  and  _279
REMARK  123  A    between atoms: _279  and  _280
REMARK  124  A    between atoms: _279  and  _282
REMARK  125  A    between atoms: _282  and  _283
REMARK  126  A    between atoms: _283  and  _284
REMARK  127  A    between atoms: _284  and  _285
REMARK  128  A    between atoms: _285  and  _286
REMARK  129  A    between atoms: _290  and  _292
REMARK  130  A    between atoms: _292  and  _293
REMARK  131  A    between atoms: _292  and  _295
REMARK  132  A    between atoms: _295  and  _296
REMARK  133  A    between atoms: _296  and  _297
REMARK  134  A    between atoms: _299  and  _301
REMARK  135  A    between atoms: _301  and  _302
REMARK  136  A    between atoms: _301  and  _304
REMARK  137  A    between atoms: _304  and  _305
REMARK  138  A    between atoms: _305  and  _306
REMARK  139  A    between atoms: _308  and  _310
REMARK  140  A    between atoms: _310  and  _311
REMARK  141  A    between atoms: _310  and  _313
REMARK  142  A    between atoms: _313  and  _314
REMARK  143  A    between atoms: _314  and  _315
REMARK  144  A    between atoms: _318  and  _320
REMARK  145  A    between atoms: _320  and  _321
REMARK  146  A    between atoms: _320  and  _323
REMARK  147  A    between atoms: _323  and  _324
REMARK  148  A    between atoms: _329  and  _330
REMARK  149  A    between atoms: _332  and  _334
REMARK  150  A    between atoms: _334  and  _335
REMARK  151  A    between atoms: _334  and  _337
REMARK  152  A    between atoms: _341  and  _342
REMARK  153  A    between atoms: _347  and  _349
REMARK  154  A    between atoms: _349  and  _350
REMARK  155  A    between atoms: _352  and  _354
REMARK  156  A    between atoms: _354  and  _355
REMARK  157  A    between atoms: _357  and  _359
REMARK  158  A    between atoms: _359  and  _360
REMARK  159  A    between atoms: _359  and  _362
REMARK  160  A    between atoms: _362  and  _363
REMARK  161  A    between atoms: _363  and  _364
REMARK  162  A    between atoms: _367  and  _369
REMARK  163  A    between atoms: _369  and  _370
REMARK  164  A    between atoms: _369  and  _372
REMARK  165  A    between atoms: _372  and  _373
REMARK  166  A    between atoms: _373  and  _374
REMARK  167  A    between atoms: _376  and  _378
REMARK  168  A    between atoms: _378  and  _379
REMARK  169  A    between atoms: _378  and  _381
REMARK  170  A    between atoms: _381  and  _382
REMARK  171  A    between atoms: _388  and  _390
REMARK  172  A    between atoms: _390  and  _391
REMARK  173  A    between atoms: _390  and  _393
REMARK  174  A    between atoms: _393  and  _394
REMARK  175  A    between atoms: _399  and  _400
REMARK  176  A    between atoms: _402  and  _404
REMARK  177  A    between atoms: _404  and  _405
REMARK  178  A    between atoms: _404  and  _407
REMARK  179  A    between atoms: _407  and  _408
REMARK  180  A    between atoms: _411  and  _413
REMARK  181  A    between atoms: _413  and  _414
REMARK  182  A    between atoms: _413  and  _416
REMARK  183  A    between atoms: _416  and  _417
REMARK  184  A    between atoms: _417  and  _418
REMARK  185  A    between atoms: _418  and  _419
REMARK  186  A    between atoms: _419  and  _420
REMARK  187  A    between atoms: _425  and  _426
REMARK  188  A    between atoms: _431  and  _433
REMARK  189  A    between atoms: _433  and  _434
REMARK  190  A    between atoms: _433  and  _436
REMARK  191  A    between atoms: _436  and  _437
REMARK  192  A    between atoms: _437  and  _438
REMARK  193  A    between atoms: _441  and  _443
REMARK  194  A    between atoms: _443  and  _444
REMARK  195  A    between atoms: _443  and  _446
REMARK  196  A    between atoms: _446  and  _447
REMARK  197  A    between atoms: _452  and  _454
REMARK  198  A    between atoms: _454  and  _455
REMARK  199  A    between atoms: _454  and  _457
REMARK  200  A    between atoms: _457  and  _458
REMARK  201  A    between atoms: _461  and  _463
REMARK  202  A    between atoms: _463  and  _464
REMARK  203  A    between atoms: _463  and  _466
REMARK  204  A    between atoms: _466  and  _467
REMARK  205  A    between atoms: _470  and  _472
REMARK  206  A    between atoms: _472  and  _473
REMARK  207  A    between atoms: _472  and  _475
REMARK  208  A    between atoms: _475  and  _476
REMARK  209  A    between atoms: _479  and  _481
REMARK  210  A    between atoms: _481  and  _482
REMARK  211  A    between atoms: _481  and  _484
REMARK  212  A    between atoms: _484  and  _485
REMARK  213  A    between atoms: _485  and  _486
REMARK  214  A    between atoms: _491  and  _493
REMARK  215  A    between atoms: _493  and  _494
REMARK  216  A    between atoms: _493  and  _496
REMARK  217  A    between atoms: _499  and  _501
REMARK  218  A    between atoms: _501  and  _502
REMARK  219  A    between atoms: _501  and  _504
REMARK  220  A    between atoms: _504  and  _505
REMARK  221  A    between atoms: _508  and  _510
REMARK  222  A    between atoms: _510  and  _511
REMARK  223  A    between atoms: _510  and  _513
REMARK  224  A    between atoms: _513  and  _514
REMARK  225  A    between atoms: _517  and  _519
REMARK  226  A    between atoms: _519  and  _520
REMARK  227  A    between atoms: _519  and  _522
REMARK  228  A    between atoms: _522  and  _523
REMARK  229  A    between atoms: _529  and  _531
REMARK  230  A    between atoms: _531  and  _532
REMARK  231  A    between atoms: _534  and  _536
REMARK  232  A    between atoms: _536  and  _537
REMARK  233  A    between atoms: _536  and  _539
REMARK  234  A    between atoms: _539  and  _540
REMARK  235  A    between atoms: _546  and  _548
REMARK  236  A    between atoms: _548  and  _549
REMARK  237  A    between atoms: _552  and  _554
REMARK  238  A    between atoms: _554  and  _555
REMARK  239  A    between atoms: _557  and  _559
REMARK  240  A    between atoms: _559  and  _560
REMARK  241  A    between atoms: _559  and  _562
REMARK  242  A    between atoms: _562  and  _563
REMARK  243  A    between atoms: _566  and  _568
REMARK  244  A    between atoms: _568  and  _569
REMARK  245  A    between atoms: _568  and  _571
REMARK  246  A    between atoms: _571  and  _572
REMARK  247  A    between atoms: _578  and  _580
REMARK  248  A    between atoms: _580  and  _581
REMARK  249  A    between atoms: _580  and  _583
REMARK  250  A    between atoms: _583  and  _584
REMARK  251  A    between atoms: _589  and  _590
REMARK                            x       y       z     vdW  Elec       q    Type
REMARK                         _______ _______ _______ _____ _____    ______ ____
ROOT
ATOM      1  O   HOH     1      16.289  10.250   2.674  0.00  0.00    +0.000 OA
ENDROOT
TORSDOF 0
REMARK  Name = ../refined-set-2016/1xh5/1xh5_pocket.pdb
REMARK  251 active torsions:
REMARK  status: ('A' for Active; 'I' for Inactive)
REMARK    1  A    between atoms: _1  and  _3
REMARK    2  A    between atoms: _3  and  _4
REMARK    3  A    between atoms: _3  and  _6
REMARK    4  A    between atoms: _6  and  _7
REMARK    5  A    between atoms: _10  and  _12
REMARK    6  A    between atoms: _12  and  _13
REMARK    7  A    between atoms: _12  and  _15
REMARK    8  A    between atoms: _15  and  _16
REMARK    9  A    between atoms: _19  and  _21
REMARK   10  A    between atoms: _21  and  _22
REMARK   11  A    between atoms: _24  and  _26
REMARK   12  A    between atoms: _26  and  _27
REMARK   13  A    between atoms: _26  and  _29
REMARK   14  A    between atoms: _29  and  _30
REMARK   15  A    between atoms: _33  and  _35
REMARK   16  A    between atoms: _35  and  _36
REMARK   17  A    between atoms: _38  and  _40
REMARK   18  A    between atoms: _40  and  _41
REMARK   19  A    between atoms: _40  and  _43
REMARK   20  A    between atoms: _43  and  _44
REMARK   21  A    between atoms: _46  and  _48
REMARK   22  A    between atoms: _48  and  _49
REMARK   23  A    between atoms: _48  and  _51
REMARK   24  A    between atoms: _51  and  _52
REMARK   25  A    between atoms: _58  and  _60
REMARK   26  A    between atoms: _60  and  _61
REMARK   27  A    between atoms: _63  and  _65
REMARK   28  A    between atoms: _65  and  _66
REMARK   29  A    between atoms: _65  and  _68
REMARK   30  A    between atoms: _68  and  _69
REMARK   31  A    between atoms: _69  and  _70
REMARK   32  A    between atoms: _70  and  _71
REMARK   33  A    between atoms: _80  and  _82
REMARK   34  A    between atoms: _82  and  _83
REMARK   35  A    between atoms: _82  and  _85
REMARK   36  A    between atoms: _88  and  _90
REMARK   37  A    between atoms: _90  and  _91
REMARK   38  A    between atoms: _90  and  _93
REMARK   39  A    between atoms: _93  and  _94
REMARK   40  A    between atoms: _94  and  _95
REMARK   41  A    between atoms: _97  and  _99
REMARK   42  A    between atoms: _99  and  _100
REMARK   43  A    between atoms: _99  and  _102
REMARK   44  A    between atoms: _102  and  _103
REMARK   45  A    between atoms: _106  and  _108
REMARK   46  A    between atoms: _108  and  _109
REMARK   47  A    between atoms: _108  and  _111
REMARK   48  A    between atoms: _111  and  _112
REMARK   49  A    between atoms: _117  and  _118
REMARK   50  A    between atoms: _120  and  _122
REMARK   51  A    between atoms: _122  and  _123
REMARK   52  A    between atoms: _126  and  _128
REMARK   53  A    between atoms: _128  and  _129
REMARK   54  A    between atoms: _128  and  _131
REMARK   55  A    between atoms: _131  and  _132
REMARK   56  A    between atoms: _132  and  _133
REMARK   57  A    between atoms: _135  and  _137
REMARK   58  A    between atoms: _137  and  _138
REMARK   59  A    between atoms: _137  and  _140
REMARK   60  A    between atoms: _140  and  _141
REMARK   61  A    between atoms: _141  and  _142
REMARK   62  A    between atoms: _142  and  _143
REMARK   63  A    between atoms: _143  and  _144
REMARK   64  A    between atoms: _148  and  _150
REMARK   65  A    between atoms: _150  and  _151
REMARK   66  A    between atoms: _150  and  _153
REMARK   67  A    between atoms: _153  and  _154
REMARK   68  A    between atoms: _157  and  _159
REMARK   69  A    between atoms: _159  and  _160
REMARK   70  A    between atoms: _159  and  _162
REMARK   71  A    between atoms: _162  and  _163
REMARK   72  A    between atoms: _166  and  _168
REMARK   73  A    between atoms: _168  and  _169
REMARK   74  A    between atoms: _168  and  _171
REMARK   75  A    between atoms: _171  and  _172
REMARK   76  A    between atoms: _175  and  _177
REMARK   77  A    between atoms: _177  and  _178
REMARK   78  A    between atoms: _177  and  _180
REMARK   79  A    between atoms: _180  and  _181
REMARK   80  A    between atoms: _181  and  _182
REMARK   81  A    between atoms: _182  and  _183
REMARK   82  A    between atoms: _183  and  _184
REMARK   83  A    between atoms: _188  and  _190
REMARK   84  A    between atoms: _190  and  _191
REMARK   85  A    between atoms: _190  and  _193
REMARK   86  A    between atoms: _196  and  _198
REMARK   87  A    between atoms: _198  and  _199
REMARK   88  A    between atoms: _198  and  _201
REMARK   89  A    between atoms: _201  and  _202
REMARK   90  A    between atoms: _205  and  _207
REMARK   91  A    between atoms: _207  and  _208
REMARK   92  A    between atoms: _207  and  _210
REMARK   93  A    between atoms: _210  and  _211
REMARK   94  A    between atoms: _211  and  _212
REMARK   95  A    between atoms: _212  and  _213
REMARK   96  A    between atoms: _213  and  _214
REMARK   97  A    between atoms: _218  and  _220
REMARK   98  A    between atoms: _220  and  _221
REMARK   99  A    between atoms: _220  and  _223
REMARK  100  A    between atoms: _223  and  _224
REMARK  101  A    between atoms: _224  and  _225
REMARK  102  A    between atoms: _230  and  _232
REMARK  103  A    between atoms: _232  and  _233
REMARK  104  A    between atoms: _232  and  _235
REMARK  105  A    between atoms: _235  and  _236
REMARK  106  A    between atoms: _241  and  _243
REMARK  107  A    between atoms: _243  and  _244
REMARK  108  A    between atoms: _243  and  _246
REMARK  109  A    between atoms: _246  and  _247
REMARK  110  A    between atoms: _250  and  _252
REMARK  111  A    between atoms: _252  and  _253
REMARK  112  A    between atoms: _252  and  _255
REMARK  113  A    between atoms: _255  and  _256
REMARK  114  A    between atoms: _256  and  _257
REMARK  115  A    between atoms: _260  and  _262
REMARK  116  A    between atoms: _262  and  _263
REMARK  117  A    between atoms: _262  and  _265
REMARK  118  A    between atoms: _265  and  _266
REMARK  119  A    between atoms: _269  and  _271
REMARK  120  A    between atoms: _271  and  _272
REMARK  121  A    between atoms: _271  and  _274
REMARK  122  A    between atoms: _277  and  _279
REMARK  123  A    between atoms: _279  and  _280
REMARK  124  A    between atoms: _279  and  _282
REMARK  125  A    between atoms: _282  and  _283
REMARK  126  A    between atoms: _283  and  _284
REMARK  127  A    between atoms: _284  and  _285
REMARK  128  A    between atoms: _285  and  _286
REMARK  129  A    between atoms: _290  and  _292
REMARK  130  A    between atoms: _292  and  _293
REMARK  131  A    between atoms: _292  and  _295
REMARK  132  A    between atoms: _295  and  _296
REMARK  133  A    between atoms: _296  and  _297
REMARK  134  A    between atoms: _299  and  _301
REMARK  135  A    between atoms: _301  and  _302
REMARK  136  A    between atoms: _301  and  _304
REMARK  137  A    between atoms: _304  and  _305
REMARK  138  A    between atoms: _305  and  _306
REMARK  139  A    between atoms: _308  and  _310
REMARK  140  A    between atoms: _310  and  _311
REMARK  141  A    between atoms: _310  and  _313
REMARK  142  A    between atoms: _313  and  _314
REMARK  143  A    between atoms: _314  and  _315
REMARK  144  A    between atoms: _318  and  _320
REMARK  145  A    between atoms: _320  and  _321
REMARK  146  A    between atoms: _320  and  _323
REMARK  147  A    between atoms: _323  and  _324
REMARK  148  A    between atoms: _329  and  _330
REMARK  149  A    between atoms: _332  and  _334
REMARK  150  A    between atoms: _334  and  _335
REMARK  151  A    between atoms: _334  and  _337
REMARK  152  A    between atoms: _341  and  _342
REMARK  153  A    between atoms: _347  and  _349
REMARK  154  A    between atoms: _349  and  _350
REMARK  155  A    between atoms: _352  and  _354
REMARK  156  A    between atoms: _354  and  _355
REMARK  157  A    between atoms: _357  and  _359
REMARK  158  A    between atoms: _359  and  _360
REMARK  159  A    between atoms: _359  and  _362
REMARK  160  A    between atoms: _362  and  _363
REMARK  161  A    between atoms: _363  and  _364
REMARK  162  A    between atoms: _367  and  _369
REMARK  163  A    between atoms: _369  and  _370
REMARK  164  A    between atoms: _369  and  _372
REMARK  165  A    between atoms: _372  and  _373
REMARK  166  A    between atoms: _373  and  _374
REMARK  167  A    between atoms: _376  and  _378
REMARK  168  A    between atoms: _378  and  _379
REMARK  169  A    between atoms: _378  and  _381
REMARK  170  A    between atoms: _381  and  _382
REMARK  171  A    between atoms: _388  and  _390
REMARK  172  A    between atoms: _390  and  _391
REMARK  173  A    between atoms: _390  and  _393
REMARK  174  A    between atoms: _393  and  _394
REMARK  175  A    between atoms: _399  and  _400
REMARK  176  A    between atoms: _402  and  _404
REMARK  177  A    between atoms: _404  and  _405
REMARK  178  A    between atoms: _404  and  _407
REMARK  179  A    between atoms: _407  and  _408
REMARK  180  A    between atoms: _411  and  _413
REMARK  181  A    between atoms: _413  and  _414
REMARK  182  A    between atoms: _413  and  _416
REMARK  183  A    between atoms: _416  and  _417
REMARK  184  A    between atoms: _417  and  _418
REMARK  185  A    between atoms: _418  and  _419
REMARK  186  A    between atoms: _419  and  _420
REMARK  187  A    between atoms: _425  and  _426
REMARK  188  A    between atoms: _431  and  _433
REMARK  189  A    between atoms: _433  and  _434
REMARK  190  A    between atoms: _433  and  _436
REMARK  191  A    between atoms: _436  and  _437
REMARK  192  A    between atoms: _437  and  _438
REMARK  193  A    between atoms: _441  and  _443
REMARK  194  A    between atoms: _443  and  _444
REMARK  195  A    between atoms: _443  and  _446
REMARK  196  A    between atoms: _446  and  _447
REMARK  197  A    between atoms: _452  and  _454
REMARK  198  A    between atoms: _454  and  _455
REMARK  199  A    between atoms: _454  and  _457
REMARK  200  A    between atoms: _457  and  _458
REMARK  201  A    between atoms: _461  and  _463
REMARK  202  A    between atoms: _463  and  _464
REMARK  203  A    between atoms: _463  and  _466
REMARK  204  A    between atoms: _466  and  _467
REMARK  205  A    between atoms: _470  and  _472
REMARK  206  A    between atoms: _472  and  _473
REMARK  207  A    between atoms: _472  and  _475
REMARK  208  A    between atoms: _475  and  _476
REMARK  209  A    between atoms: _479  and  _481
REMARK  210  A    between atoms: _481  and  _482
REMARK  211  A    between atoms: _481  and  _484
REMARK  212  A    between atoms: _484  and  _485
REMARK  213  A    between atoms: _485  and  _486
REMARK  214  A    between atoms: _491  and  _493
REMARK  215  A    between atoms: _493  and  _494
REMARK  216  A    between atoms: _493  and  _496
REMARK  217  A    between atoms: _499  and  _501
REMARK  218  A    between atoms: _501  and  _502
REMARK  219  A    between atoms: _501  and  _504
REMARK  220  A    between atoms: _504  and  _505
REMARK  221  A    between atoms: _508  and  _510
REMARK  222  A    between atoms: _510  and  _511
REMARK  223  A    between atoms: _510  and  _513
REMARK  224  A    between atoms: _513  and  _514
REMARK  225  A    between atoms: _517  and  _519
REMARK  226  A    between atoms: _519  and  _520
REMARK  227  A    between atoms: _519  and  _522
REMARK  228  A    between atoms: _522  and  _523
REMARK  229  A    between atoms: _529  and  _531
REMARK  230  A    between atoms: _531  and  _532
REMARK  231  A    between atoms: _534  and  _536
REMARK  232  A    between atoms: _536  and  _537
REMARK  233  A    between atoms: _536  and  _539
REMARK  234  A    between atoms: _539  and  _540
REMARK  235  A    between atoms: _546  and  _548
REMARK  236  A    between atoms: _548  and  _549
REMARK  237  A    between atoms: _552  and  _554
REMARK  238  A    between atoms: _554  and  _555
REMARK  239  A    between atoms: _557  and  _559
REMARK  240  A    between atoms: _559  and  _560
REMARK  241  A    between atoms: _559  and  _562
REMARK  242  A    between atoms: _562  and  _563
REMARK  243  A    between atoms: _566  and  _568
REMARK  244  A    between atoms: _568  and  _569
REMARK  245  A    between atoms: _568  and  _571
REMARK  246  A    between atoms: _571  and  _572
REMARK  247  A    between atoms: _578  and  _580
REMARK  248  A    between atoms: _580  and  _581
REMARK  249  A    between atoms: _580  and  _583
REMARK  250  A    between atoms: _583  and  _584
REMARK  251  A    between atoms: _589  and  _590
REMARK                            x       y       z     vdW  Elec       q    Type
REMARK                         _______ _______ _______ _____ _____    ______ ____
ROOT
ATOM      1  O   HOH     1      14.592  10.728   6.532  0.00  0.00    +0.000 OA
ENDROOT
TORSDOF 0
REMARK  Name = ../refined-set-2016/1xh5/1xh5_pocket.pdb
REMARK  251 active torsions:
REMARK  status: ('A' for Active; 'I' for Inactive)
REMARK    1  A    between atoms: _1  and  _3
REMARK    2  A    between atoms: _3  and  _4
REMARK    3  A    between atoms: _3  and  _6
REMARK    4  A    between atoms: _6  and  _7
REMARK    5  A    between atoms: _10  and  _12
REMARK    6  A    between atoms: _12  and  _13
REMARK    7  A    between atoms: _12  and  _15
REMARK    8  A    between atoms: _15  and  _16
REMARK    9  A    between atoms: _19  and  _21
REMARK   10  A    between atoms: _21  and  _22
REMARK   11  A    between atoms: _24  and  _26
REMARK   12  A    between atoms: _26  and  _27
REMARK   13  A    between atoms: _26  and  _29
REMARK   14  A    between atoms: _29  and  _30
REMARK   15  A    between atoms: _33  and  _35
REMARK   16  A    between atoms: _35  and  _36
REMARK   17  A    between atoms: _38  and  _40
REMARK   18  A    between atoms: _40  and  _41
REMARK   19  A    between atoms: _40  and  _43
REMARK   20  A    between atoms: _43  and  _44
REMARK   21  A    between atoms: _46  and  _48
REMARK   22  A    between atoms: _48  and  _49
REMARK   23  A    between atoms: _48  and  _51
REMARK   24  A    between atoms: _51  and  _52
REMARK   25  A    between atoms: _58  and  _60
REMARK   26  A    between atoms: _60  and  _61
REMARK   27  A    between atoms: _63  and  _65
REMARK   28  A    between atoms: _65  and  _66
REMARK   29  A    between atoms: _65  and  _68
REMARK   30  A    between atoms: _68  and  _69
REMARK   31  A    between atoms: _69  and  _70
REMARK   32  A    between atoms: _70  and  _71
REMARK   33  A    between atoms: _80  and  _82
REMARK   34  A    between atoms: _82  and  _83
REMARK   35  A    between atoms: _82  and  _85
REMARK   36  A    between atoms: _88  and  _90
REMARK   37  A    between atoms: _90  and  _91
REMARK   38  A    between atoms: _90  and  _93
REMARK   39  A    between atoms: _93  and  _94
REMARK   40  A    between atoms: _94  and  _95
REMARK   41  A    between atoms: _97  and  _99
REMARK   42  A    between atoms: _99  and  _100
REMARK   43  A    between atoms: _99  and  _102
REMARK   44  A    between atoms: _102  and  _103
REMARK   45  A    between atoms: _106  and  _108
REMARK   46  A    between atoms: _108  and  _109
REMARK   47  A    between atoms: _108  and  _111
REMARK   48  A    between atoms: _111  and  _112
REMARK   49  A    between atoms: _117  and  _118
REMARK   50  A    between atoms: _120  and  _122
REMARK   51  A    between atoms: _122  and  _123
REMARK   52  A    between atoms: _126  and  _128
REMARK   53  A    between atoms: _128  and  _129
REMARK   54  A    between atoms: _128  and  _131
REMARK   55  A    between atoms: _131  and  _132
REMARK   56  A    between atoms: _132  and  _133
REMARK   57  A    between atoms: _135  and  _137
REMARK   58  A    between atoms: _137  and  _138
REMARK   59  A    between atoms: _137  and  _140
REMARK   60  A    between atoms: _140  and  _141
REMARK   61  A    between atoms: _141  and  _142
REMARK   62  A    between atoms: _142  and  _143
REMARK   63  A    between atoms: _143  and  _144
REMARK   64  A    between atoms: _148  and  _150
REMARK   65  A    between atoms: _150  and  _151
REMARK   66  A    between atoms: _150  and  _153
REMARK   67  A    between atoms: _153  and  _154
REMARK   68  A    between atoms: _157  and  _159
REMARK   69  A    between atoms: _159  and  _160
REMARK   70  A    between atoms: _159  and  _162
REMARK   71  A    between atoms: _162  and  _163
REMARK   72  A    between atoms: _166  and  _168
REMARK   73  A    between atoms: _168  and  _169
REMARK   74  A    between atoms: _168  and  _171
REMARK   75  A    between atoms: _171  and  _172
REMARK   76  A    between atoms: _175  and  _177
REMARK   77  A    between atoms: _177  and  _178
REMARK   78  A    between atoms: _177  and  _180
REMARK   79  A    between atoms: _180  and  _181
REMARK   80  A    between atoms: _181  and  _182
REMARK   81  A    between atoms: _182  and  _183
REMARK   82  A    between atoms: _183  and  _184
REMARK   83  A    between atoms: _188  and  _190
REMARK   84  A    between atoms: _190  and  _191
REMARK   85  A    between atoms: _190  and  _193
REMARK   86  A    between atoms: _196  and  _198
REMARK   87  A    between atoms: _198  and  _199
REMARK   88  A    between atoms: _198  and  _201
REMARK   89  A    between atoms: _201  and  _202
REMARK   90  A    between atoms: _205  and  _207
REMARK   91  A    between atoms: _207  and  _208
REMARK   92  A    between atoms: _207  and  _210
REMARK   93  A    between atoms: _210  and  _211
REMARK   94  A    between atoms: _211  and  _212
REMARK   95  A    between atoms: _212  and  _213
REMARK   96  A    between atoms: _213  and  _214
REMARK   97  A    between atoms: _218  and  _220
REMARK   98  A    between atoms: _220  and  _221
REMARK   99  A    between atoms: _220  and  _223
REMARK  100  A    between atoms: _223  and  _224
REMARK  101  A    between atoms: _224  and  _225
REMARK  102  A    between atoms: _230  and  _232
REMARK  103  A    between atoms: _232  and  _233
REMARK  104  A    between atoms: _232  and  _235
REMARK  105  A    between atoms: _235  and  _236
REMARK  106  A    between atoms: _241  and  _243
REMARK  107  A    between atoms: _243  and  _244
REMARK  108  A    between atoms: _243  and  _246
REMARK  109  A    between atoms: _246  and  _247
REMARK  110  A    between atoms: _250  and  _252
REMARK  111  A    between atoms: _252  and  _253
REMARK  112  A    between atoms: _252  and  _255
REMARK  113  A    between atoms: _255  and  _256
REMARK  114  A    between atoms: _256  and  _257
REMARK  115  A    between atoms: _260  and  _262
REMARK  116  A    between atoms: _262  and  _263
REMARK  117  A    between atoms: _262  and  _265
REMARK  118  A    between atoms: _265  and  _266
REMARK  119  A    between atoms: _269  and  _271
REMARK  120  A    between atoms: _271  and  _272
REMARK  121  A    between atoms: _271  and  _274
REMARK  122  A    between atoms: _277  and  _279
REMARK  123  A    between atoms: _279  and  _280
REMARK  124  A    between atoms: _279  and  _282
REMARK  125  A    between atoms: _282  and  _283
REMARK  126  A    between atoms: _283  and  _284
REMARK  127  A    between atoms: _284  and  _285
REMARK  128  A    between atoms: _285  and  _286
REMARK  129  A    between atoms: _290  and  _292
REMARK  130  A    between atoms: _292  and  _293
REMARK  131  A    between atoms: _292  and  _295
REMARK  132  A    between atoms: _295  and  _296
REMARK  133  A    between atoms: _296  and  _297
REMARK  134  A    between atoms: _299  and  _301
REMARK  135  A    between atoms: _301  and  _302
REMARK  136  A    between atoms: _301  and  _304
REMARK  137  A    between atoms: _304  and  _305
REMARK  138  A    between atoms: _305  and  _306
REMARK  139  A    between atoms: _308  and  _310
REMARK  140  A    between atoms: _310  and  _311
REMARK  141  A    between atoms: _310  and  _313
REMARK  142  A    between atoms: _313  and  _314
REMARK  143  A    between atoms: _314  and  _315
REMARK  144  A    between atoms: _318  and  _320
REMARK  145  A    between atoms: _320  and  _321
REMARK  146  A    between atoms: _320  and  _323
REMARK  147  A    between atoms: _323  and  _324
REMARK  148  A    between atoms: _329  and  _330
REMARK  149  A    between atoms: _332  and  _334
REMARK  150  A    between atoms: _334  and  _335
REMARK  151  A    between atoms: _334  and  _337
REMARK  152  A    between atoms: _341  and  _342
REMARK  153  A    between atoms: _347  and  _349
REMARK  154  A    between atoms: _349  and  _350
REMARK  155  A    between atoms: _352  and  _354
REMARK  156  A    between atoms: _354  and  _355
REMARK  157  A    between atoms: _357  and  _359
REMARK  158  A    between atoms: _359  and  _360
REMARK  159  A    between atoms: _359  and  _362
REMARK  160  A    between atoms: _362  and  _363
REMARK  161  A    between atoms: _363  and  _364
REMARK  162  A    between atoms: _367  and  _369
REMARK  163  A    between atoms: _369  and  _370
REMARK  164  A    between atoms: _369  and  _372
REMARK  165  A    between atoms: _372  and  _373
REMARK  166  A    between atoms: _373  and  _374
REMARK  167  A    between atoms: _376  and  _378
REMARK  168  A    between atoms: _378  and  _379
REMARK  169  A    between atoms: _378  and  _381
REMARK  170  A    between atoms: _381  and  _382
REMARK  171  A    between atoms: _388  and  _390
REMARK  172  A    between atoms: _390  and  _391
REMARK  173  A    between atoms: _390  and  _393
REMARK  174  A    between atoms: _393  and  _394
REMARK  175  A    between atoms: _399  and  _400
REMARK  176  A    between atoms: _402  and  _404
REMARK  177  A    between atoms: _404  and  _405
REMARK  178  A    between atoms: _404  and  _407
REMARK  179  A    between atoms: _407  and  _408
REMARK  180  A    between atoms: _411  and  _413
REMARK  181  A    between atoms: _413  and  _414
REMARK  182  A    between atoms: _413  and  _416
REMARK  183  A    between atoms: _416  and  _417
REMARK  184  A    between atoms: _417  and  _418
REMARK  185  A    between atoms: _418  and  _419
REMARK  186  A    between atoms: _419  and  _420
REMARK  187  A    between atoms: _425  and  _426
REMARK  188  A    between atoms: _431  and  _433
REMARK  189  A    between atoms: _433  and  _434
REMARK  190  A    between atoms: _433  and  _436
REMARK  191  A    between atoms: _436  and  _437
REMARK  192  A    between atoms: _437  and  _438
REMARK  193  A    between atoms: _441  and  _443
REMARK  194  A    between atoms: _443  and  _444
REMARK  195  A    between atoms: _443  and  _446
REMARK  196  A    between atoms: _446  and  _447
REMARK  197  A    between atoms: _452  and  _454
REMARK  198  A    between atoms: _454  and  _455
REMARK  199  A    between atoms: _454  and  _457
REMARK  200  A    between atoms: _457  and  _458
REMARK  201  A    between atoms: _461  and  _463
REMARK  202  A    between atoms: _463  and  _464
REMARK  203  A    between atoms: _463  and  _466
REMARK  204  A    between atoms: _466  and  _467
REMARK  205  A    between atoms: _470  and  _472
REMARK  206  A    between atoms: _472  and  _473
REMARK  207  A    between atoms: _472  and  _475
REMARK  208  A    between atoms: _475  and  _476
REMARK  209  A    between atoms: _479  and  _481
REMARK  210  A    between atoms: _481  and  _482
REMARK  211  A    between atoms: _481  and  _484
REMARK  212  A    between atoms: _484  and  _485
REMARK  213  A    between atoms: _485  and  _486
REMARK  214  A    between atoms: _491  and  _493
REMARK  215  A    between atoms: _493  and  _494
REMARK  216  A    between atoms: _493  and  _496
REMARK  217  A    between atoms: _499  and  _501
REMARK  218  A    between atoms: _501  and  _502
REMARK  219  A    between atoms: _501  and  _504
REMARK  220  A    between atoms: _504  and  _505
REMARK  221  A    between atoms: _508  and  _510
REMARK  222  A    between atoms: _510  and  _511
REMARK  223  A    between atoms: _510  and  _513
REMARK  224  A    between atoms: _513  and  _514
REMARK  225  A    between atoms: _517  and  _519
REMARK  226  A    between atoms: _519  and  _520
REMARK  227  A    between atoms: _519  and  _522
REMARK  228  A    between atoms: _522  and  _523
REMARK  229  A    between atoms: _529  and  _531
REMARK  230  A    between atoms: _531  and  _532
REMARK  231  A    between atoms: _534  and  _536
REMARK  232  A    between atoms: _536  and  _537
REMARK  233  A    between atoms: _536  and  _539
REMARK  234  A    between atoms: _539  and  _540
REMARK  235  A    between atoms: _546  and  _548
REMARK  236  A    between atoms: _548  and  _549
REMARK  237  A    between atoms: _552  and  _554
REMARK  238  A    between atoms: _554  and  _555
REMARK  239  A    between atoms: _557  and  _559
REMARK  240  A    between atoms: _559  and  _560
REMARK  241  A    between atoms: _559  and  _562
REMARK  242  A    between atoms: _562  and  _563
REMARK  243  A    between atoms: _566  and  _568
REMARK  244  A    between atoms: _568  and  _569
REMARK  245  A    between atoms: _568  and  _571
REMARK  246  A    between atoms: _571  and  _572
REMARK  247  A    between atoms: _578  and  _580
REMARK  248  A    between atoms: _580  and  _581
REMARK  249  A    between atoms: _580  and  _583
REMARK  250  A    between atoms: _583  and  _584
REMARK  251  A    between atoms: _589  and  _590
REMARK                            x       y       z     vdW  Elec       q    Type
REMARK                         _______ _______ _______ _____ _____    ______ ____
ROOT
ATOM      1  O   HOH     1      12.839   9.399  -3.968  0.00  0.00    +0.000 OA
ENDROOT
TORSDOF 0
REMARK  Name = ../refined-set-2016/1xh5/1xh5_pocket.pdb
REMARK  251 active torsions:
REMARK  status: ('A' for Active; 'I' for Inactive)
REMARK    1  A    between atoms: _1  and  _3
REMARK    2  A    between atoms: _3  and  _4
REMARK    3  A    between atoms: _3  and  _6
REMARK    4  A    between atoms: _6  and  _7
REMARK    5  A    between atoms: _10  and  _12
REMARK    6  A    between atoms: _12  and  _13
REMARK    7  A    between atoms: _12  and  _15
REMARK    8  A    between atoms: _15  and  _16
REMARK    9  A    between atoms: _19  and  _21
REMARK   10  A    between atoms: _21  and  _22
REMARK   11  A    between atoms: _24  and  _26
REMARK   12  A    between atoms: _26  and  _27
REMARK   13  A    between atoms: _26  and  _29
REMARK   14  A    between atoms: _29  and  _30
REMARK   15  A    between atoms: _33  and  _35
REMARK   16  A    between atoms: _35  and  _36
REMARK   17  A    between atoms: _38  and  _40
REMARK   18  A    between atoms: _40  and  _41
REMARK   19  A    between atoms: _40  and  _43
REMARK   20  A    between atoms: _43  and  _44
REMARK   21  A    between atoms: _46  and  _48
REMARK   22  A    between atoms: _48  and  _49
REMARK   23  A    between atoms: _48  and  _51
REMARK   24  A    between atoms: _51  and  _52
REMARK   25  A    between atoms: _58  and  _60
REMARK   26  A    between atoms: _60  and  _61
REMARK   27  A    between atoms: _63  and  _65
REMARK   28  A    between atoms: _65  and  _66
REMARK   29  A    between atoms: _65  and  _68
REMARK   30  A    between atoms: _68  and  _69
REMARK   31  A    between atoms: _69  and  _70
REMARK   32  A    between atoms: _70  and  _71
REMARK   33  A    between atoms: _80  and  _82
REMARK   34  A    between atoms: _82  and  _83
REMARK   35  A    between atoms: _82  and  _85
REMARK   36  A    between atoms: _88  and  _90
REMARK   37  A    between atoms: _90  and  _91
REMARK   38  A    between atoms: _90  and  _93
REMARK   39  A    between atoms: _93  and  _94
REMARK   40  A    between atoms: _94  and  _95
REMARK   41  A    between atoms: _97  and  _99
REMARK   42  A    between atoms: _99  and  _100
REMARK   43  A    between atoms: _99  and  _102
REMARK   44  A    between atoms: _102  and  _103
REMARK   45  A    between atoms: _106  and  _108
REMARK   46  A    between atoms: _108  and  _109
REMARK   47  A    between atoms: _108  and  _111
REMARK   48  A    between atoms: _111  and  _112
REMARK   49  A    between atoms: _117  and  _118
REMARK   50  A    between atoms: _120  and  _122
REMARK   51  A    between atoms: _122  and  _123
REMARK   52  A    between atoms: _126  and  _128
REMARK   53  A    between atoms: _128  and  _129
REMARK   54  A    between atoms: _128  and  _131
REMARK   55  A    between atoms: _131  and  _132
REMARK   56  A    between atoms: _132  and  _133
REMARK   57  A    between atoms: _135  and  _137
REMARK   58  A    between atoms: _137  and  _138
REMARK   59  A    between atoms: _137  and  _140
REMARK   60  A    between atoms: _140  and  _141
REMARK   61  A    between atoms: _141  and  _142
REMARK   62  A    between atoms: _142  and  _143
REMARK   63  A    between atoms: _143  and  _144
REMARK   64  A    between atoms: _148  and  _150
REMARK   65  A    between atoms: _150  and  _151
REMARK   66  A    between atoms: _150  and  _153
REMARK   67  A    between atoms: _153  and  _154
REMARK   68  A    between atoms: _157  and  _159
REMARK   69  A    between atoms: _159  and  _160
REMARK   70  A    between atoms: _159  and  _162
REMARK   71  A    between atoms: _162  and  _163
REMARK   72  A    between atoms: _166  and  _168
REMARK   73  A    between atoms: _168  and  _169
REMARK   74  A    between atoms: _168  and  _171
REMARK   75  A    between atoms: _171  and  _172
REMARK   76  A    between atoms: _175  and  _177
REMARK   77  A    between atoms: _177  and  _178
REMARK   78  A    between atoms: _177  and  _180
REMARK   79  A    between atoms: _180  and  _181
REMARK   80  A    between atoms: _181  and  _182
REMARK   81  A    between atoms: _182  and  _183
REMARK   82  A    between atoms: _183  and  _184
REMARK   83  A    between atoms: _188  and  _190
REMARK   84  A    between atoms: _190  and  _191
REMARK   85  A    between atoms: _190  and  _193
REMARK   86  A    between atoms: _196  and  _198
REMARK   87  A    between atoms: _198  and  _199
REMARK   88  A    between atoms: _198  and  _201
REMARK   89  A    between atoms: _201  and  _202
REMARK   90  A    between atoms: _205  and  _207
REMARK   91  A    between atoms: _207  and  _208
REMARK   92  A    between atoms: _207  and  _210
REMARK   93  A    between atoms: _210  and  _211
REMARK   94  A    between atoms: _211  and  _212
REMARK   95  A    between atoms: _212  and  _213
REMARK   96  A    between atoms: _213  and  _214
REMARK   97  A    between atoms: _218  and  _220
REMARK   98  A    between atoms: _220  and  _221
REMARK   99  A    between atoms: _220  and  _223
REMARK  100  A    between atoms: _223  and  _224
REMARK  101  A    between atoms: _224  and  _225
REMARK  102  A    between atoms: _230  and  _232
REMARK  103  A    between atoms: _232  and  _233
REMARK  104  A    between atoms: _232  and  _235
REMARK  105  A    between atoms: _235  and  _236
REMARK  106  A    between atoms: _241  and  _243
REMARK  107  A    between atoms: _243  and  _244
REMARK  108  A    between atoms: _243  and  _246
REMARK  109  A    between atoms: _246  and  _247
REMARK  110  A    between atoms: _250  and  _252
REMARK  111  A    between atoms: _252  and  _253
REMARK  112  A    between atoms: _252  and  _255
REMARK  113  A    between atoms: _255  and  _256
REMARK  114  A    between atoms: _256  and  _257
REMARK  115  A    between atoms: _260  and  _262
REMARK  116  A    between atoms: _262  and  _263
REMARK  117  A    between atoms: _262  and  _265
REMARK  118  A    between atoms: _265  and  _266
REMARK  119  A    between atoms: _269  and  _271
REMARK  120  A    between atoms: _271  and  _272
REMARK  121  A    between atoms: _271  and  _274
REMARK  122  A    between atoms: _277  and  _279
REMARK  123  A    between atoms: _279  and  _280
REMARK  124  A    between atoms: _279  and  _282
REMARK  125  A    between atoms: _282  and  _283
REMARK  126  A    between atoms: _283  and  _284
REMARK  127  A    between atoms: _284  and  _285
REMARK  128  A    between atoms: _285  and  _286
REMARK  129  A    between atoms: _290  and  _292
REMARK  130  A    between atoms: _292  and  _293
REMARK  131  A    between atoms: _292  and  _295
REMARK  132  A    between atoms: _295  and  _296
REMARK  133  A    between atoms: _296  and  _297
REMARK  134  A    between atoms: _299  and  _301
REMARK  135  A    between atoms: _301  and  _302
REMARK  136  A    between atoms: _301  and  _304
REMARK  137  A    between atoms: _304  and  _305
REMARK  138  A    between atoms: _305  and  _306
REMARK  139  A    between atoms: _308  and  _310
REMARK  140  A    between atoms: _310  and  _311
REMARK  141  A    between atoms: _310  and  _313
REMARK  142  A    between atoms: _313  and  _314
REMARK  143  A    between atoms: _314  and  _315
REMARK  144  A    between atoms: _318  and  _320
REMARK  145  A    between atoms: _320  and  _321
REMARK  146  A    between atoms: _320  and  _323
REMARK  147  A    between atoms: _323  and  _324
REMARK  148  A    between atoms: _329  and  _330
REMARK  149  A    between atoms: _332  and  _334
REMARK  150  A    between atoms: _334  and  _335
REMARK  151  A    between atoms: _334  and  _337
REMARK  152  A    between atoms: _341  and  _342
REMARK  153  A    between atoms: _347  and  _349
REMARK  154  A    between atoms: _349  and  _350
REMARK  155  A    between atoms: _352  and  _354
REMARK  156  A    between atoms: _354  and  _355
REMARK  157  A    between atoms: _357  and  _359
REMARK  158  A    between atoms: _359  and  _360
REMARK  159  A    between atoms: _359  and  _362
REMARK  160  A    between atoms: _362  and  _363
REMARK  161  A    between atoms: _363  and  _364
REMARK  162  A    between atoms: _367  and  _369
REMARK  163  A    between atoms: _369  and  _370
REMARK  164  A    between atoms: _369  and  _372
REMARK  165  A    between atoms: _372  and  _373
REMARK  166  A    between atoms: _373  and  _374
REMARK  167  A    between atoms: _376  and  _378
REMARK  168  A    between atoms: _378  and  _379
REMARK  169  A    between atoms: _378  and  _381
REMARK  170  A    between atoms: _381  and  _382
REMARK  171  A    between atoms: _388  and  _390
REMARK  172  A    between atoms: _390  and  _391
REMARK  173  A    between atoms: _390  and  _393
REMARK  174  A    between atoms: _393  and  _394
REMARK  175  A    between atoms: _399  and  _400
REMARK  176  A    between atoms: _402  and  _404
REMARK  177  A    between atoms: _404  and  _405
REMARK  178  A    between atoms: _404  and  _407
REMARK  179  A    between atoms: _407  and  _408
REMARK  180  A    between atoms: _411  and  _413
REMARK  181  A    between atoms: _413  and  _414
REMARK  182  A    between atoms: _413  and  _416
REMARK  183  A    between atoms: _416  and  _417
REMARK  184  A    between atoms: _417  and  _418
REMARK  185  A    between atoms: _418  and  _419
REMARK  186  A    between atoms: _419  and  _420
REMARK  187  A    between atoms: _425  and  _426
REMARK  188  A    between atoms: _431  and  _433
REMARK  189  A    between atoms: _433  and  _434
REMARK  190  A    between atoms: _433  and  _436
REMARK  191  A    between atoms: _436  and  _437
REMARK  192  A    between atoms: _437  and  _438
REMARK  193  A    between atoms: _441  and  _443
REMARK  194  A    between atoms: _443  and  _444
REMARK  195  A    between atoms: _443  and  _446
REMARK  196  A    between atoms: _446  and  _447
REMARK  197  A    between atoms: _452  and  _454
REMARK  198  A    between atoms: _454  and  _455
REMARK  199  A    between atoms: _454  and  _457
REMARK  200  A    between atoms: _457  and  _458
REMARK  201  A    between atoms: _461  and  _463
REMARK  202  A    between atoms: _463  and  _464
REMARK  203  A    between atoms: _463  and  _466
REMARK  204  A    between atoms: _466  and  _467
REMARK  205  A    between atoms: _470  and  _472
REMARK  206  A    between atoms: _472  and  _473
REMARK  207  A    between atoms: _472  and  _475
REMARK  208  A    between atoms: _475  and  _476
REMARK  209  A    between atoms: _479  and  _481
REMARK  210  A    between atoms: _481  and  _482
REMARK  211  A    between atoms: _481  and  _484
REMARK  212  A    between atoms: _484  and  _485
REMARK  213  A    between atoms: _485  and  _486
REMARK  214  A    between atoms: _491  and  _493
REMARK  215  A    between atoms: _493  and  _494
REMARK  216  A    between atoms: _493  and  _496
REMARK  217  A    between atoms: _499  and  _501
REMARK  218  A    between atoms: _501  and  _502
REMARK  219  A    between atoms: _501  and  _504
REMARK  220  A    between atoms: _504  and  _505
REMARK  221  A    between atoms: _508  and  _510
REMARK  222  A    between atoms: _510  and  _511
REMARK  223  A    between atoms: _510  and  _513
REMARK  224  A    between atoms: _513  and  _514
REMARK  225  A    between atoms: _517  and  _519
REMARK  226  A    between atoms: _519  and  _520
REMARK  227  A    between atoms: _519  and  _522
REMARK  228  A    between atoms: _522  and  _523
REMARK  229  A    between atoms: _529  and  _531
REMARK  230  A    between atoms: _531  and  _532
REMARK  231  A    between atoms: _534  and  _536
REMARK  232  A    between atoms: _536  and  _537
REMARK  233  A    between atoms: _536  and  _539
REMARK  234  A    between atoms: _539  and  _540
REMARK  235  A    between atoms: _546  and  _548
REMARK  236  A    between atoms: _548  and  _549
REMARK  237  A    between atoms: _552  and  _554
REMARK  238  A    between atoms: _554  and  _555
REMARK  239  A    between atoms: _557  and  _559
REMARK  240  A    between atoms: _559  and  _560
REMARK  241  A    between atoms: _559  and  _562
REMARK  242  A    between atoms: _562  and  _563
REMARK  243  A    between atoms: _566  and  _568
REMARK  244  A    between atoms: _568  and  _569
REMARK  245  A    between atoms: _568  and  _571
REMARK  246  A    between atoms: _571  and  _572
REMARK  247  A    between atoms: _578  and  _580
REMARK  248  A    between atoms: _580  and  _581
REMARK  249  A    between atoms: _580  and  _583
REMARK  250  A    between atoms: _583  and  _584
REMARK  251  A    between atoms: _589  and  _590
REMARK                            x       y       z     vdW  Elec       q    Type
REMARK                         _______ _______ _______ _____ _____    ______ ____
ROOT
ATOM      1  O   HOH     1      14.666   6.178   1.410  0.00  0.00    +0.000 OA
ENDROOT
TORSDOF 0
REMARK  Name = ../refined-set-2016/1xh5/1xh5_pocket.pdb
REMARK  251 active torsions:
REMARK  status: ('A' for Active; 'I' for Inactive)
REMARK    1  A    between atoms: _1  and  _3
REMARK    2  A    between atoms: _3  and  _4
REMARK    3  A    between atoms: _3  and  _6
REMARK    4  A    between atoms: _6  and  _7
REMARK    5  A    between atoms: _10  and  _12
REMARK    6  A    between atoms: _12  and  _13
REMARK    7  A    between atoms: _12  and  _15
REMARK    8  A    between atoms: _15  and  _16
REMARK    9  A    between atoms: _19  and  _21
REMARK   10  A    between atoms: _21  and  _22
REMARK   11  A    between atoms: _24  and  _26
REMARK   12  A    between atoms: _26  and  _27
REMARK   13  A    between atoms: _26  and  _29
REMARK   14  A    between atoms: _29  and  _30
REMARK   15  A    between atoms: _33  and  _35
REMARK   16  A    between atoms: _35  and  _36
REMARK   17  A    between atoms: _38  and  _40
REMARK   18  A    between atoms: _40  and  _41
REMARK   19  A    between atoms: _40  and  _43
REMARK   20  A    between atoms: _43  and  _44
REMARK   21  A    between atoms: _46  and  _48
REMARK   22  A    between atoms: _48  and  _49
REMARK   23  A    between atoms: _48  and  _51
REMARK   24  A    between atoms: _51  and  _52
REMARK   25  A    between atoms: _58  and  _60
REMARK   26  A    between atoms: _60  and  _61
REMARK   27  A    between atoms: _63  and  _65
REMARK   28  A    between atoms: _65  and  _66
REMARK   29  A    between atoms: _65  and  _68
REMARK   30  A    between atoms: _68  and  _69
REMARK   31  A    between atoms: _69  and  _70
REMARK   32  A    between atoms: _70  and  _71
REMARK   33  A    between atoms: _80  and  _82
REMARK   34  A    between atoms: _82  and  _83
REMARK   35  A    between atoms: _82  and  _85
REMARK   36  A    between atoms: _88  and  _90
REMARK   37  A    between atoms: _90  and  _91
REMARK   38  A    between atoms: _90  and  _93
REMARK   39  A    between atoms: _93  and  _94
REMARK   40  A    between atoms: _94  and  _95
REMARK   41  A    between atoms: _97  and  _99
REMARK   42  A    between atoms: _99  and  _100
REMARK   43  A    between atoms: _99  and  _102
REMARK   44  A    between atoms: _102  and  _103
REMARK   45  A    between atoms: _106  and  _108
REMARK   46  A    between atoms: _108  and  _109
REMARK   47  A    between atoms: _108  and  _111
REMARK   48  A    between atoms: _111  and  _112
REMARK   49  A    between atoms: _117  and  _118
REMARK   50  A    between atoms: _120  and  _122
REMARK   51  A    between atoms: _122  and  _123
REMARK   52  A    between atoms: _126  and  _128
REMARK   53  A    between atoms: _128  and  _129
REMARK   54  A    between atoms: _128  and  _131
REMARK   55  A    between atoms: _131  and  _132
REMARK   56  A    between atoms: _132  and  _133
REMARK   57  A    between atoms: _135  and  _137
REMARK   58  A    between atoms: _137  and  _138
REMARK   59  A    between atoms: _137  and  _140
REMARK   60  A    between atoms: _140  and  _141
REMARK   61  A    between atoms: _141  and  _142
REMARK   62  A    between atoms: _142  and  _143
REMARK   63  A    between atoms: _143  and  _144
REMARK   64  A    between atoms: _148  and  _150
REMARK   65  A    between atoms: _150  and  _151
REMARK   66  A    between atoms: _150  and  _153
REMARK   67  A    between atoms: _153  and  _154
REMARK   68  A    between atoms: _157  and  _159
REMARK   69  A    between atoms: _159  and  _160
REMARK   70  A    between atoms: _159  and  _162
REMARK   71  A    between atoms: _162  and  _163
REMARK   72  A    between atoms: _166  and  _168
REMARK   73  A    between atoms: _168  and  _169
REMARK   74  A    between atoms: _168  and  _171
REMARK   75  A    between atoms: _171  and  _172
REMARK   76  A    between atoms: _175  and  _177
REMARK   77  A    between atoms: _177  and  _178
REMARK   78  A    between atoms: _177  and  _180
REMARK   79  A    between atoms: _180  and  _181
REMARK   80  A    between atoms: _181  and  _182
REMARK   81  A    between atoms: _182  and  _183
REMARK   82  A    between atoms: _183  and  _184
REMARK   83  A    between atoms: _188  and  _190
REMARK   84  A    between atoms: _190  and  _191
REMARK   85  A    between atoms: _190  and  _193
REMARK   86  A    between atoms: _196  and  _198
REMARK   87  A    between atoms: _198  and  _199
REMARK   88  A    between atoms: _198  and  _201
REMARK   89  A    between atoms: _201  and  _202
REMARK   90  A    between atoms: _205  and  _207
REMARK   91  A    between atoms: _207  and  _208
REMARK   92  A    between atoms: _207  and  _210
REMARK   93  A    between atoms: _210  and  _211
REMARK   94  A    between atoms: _211  and  _212
REMARK   95  A    between atoms: _212  and  _213
REMARK   96  A    between atoms: _213  and  _214
REMARK   97  A    between atoms: _218  and  _220
REMARK   98  A    between atoms: _220  and  _221
REMARK   99  A    between atoms: _220  and  _223
REMARK  100  A    between atoms: _223  and  _224
REMARK  101  A    between atoms: _224  and  _225
REMARK  102  A    between atoms: _230  and  _232
REMARK  103  A    between atoms: _232  and  _233
REMARK  104  A    between atoms: _232  and  _235
REMARK  105  A    between atoms: _235  and  _236
REMARK  106  A    between atoms: _241  and  _243
REMARK  107  A    between atoms: _243  and  _244
REMARK  108  A    between atoms: _243  and  _246
REMARK  109  A    between atoms: _246  and  _247
REMARK  110  A    between atoms: _250  and  _252
REMARK  111  A    between atoms: _252  and  _253
REMARK  112  A    between atoms: _252  and  _255
REMARK  113  A    between atoms: _255  and  _256
REMARK  114  A    between atoms: _256  and  _257
REMARK  115  A    between atoms: _260  and  _262
REMARK  116  A    between atoms: _262  and  _263
REMARK  117  A    between atoms: _262  and  _265
REMARK  118  A    between atoms: _265  and  _266
REMARK  119  A    between atoms: _269  and  _271
REMARK  120  A    between atoms: _271  and  _272
REMARK  121  A    between atoms: _271  and  _274
REMARK  122  A    between atoms: _277  and  _279
REMARK  123  A    between atoms: _279  and  _280
REMARK  124  A    between atoms: _279  and  _282
REMARK  125  A    between atoms: _282  and  _283
REMARK  126  A    between atoms: _283  and  _284
REMARK  127  A    between atoms: _284  and  _285
REMARK  128  A    between atoms: _285  and  _286
REMARK  129  A    between atoms: _290  and  _292
REMARK  130  A    between atoms: _292  and  _293
REMARK  131  A    between atoms: _292  and  _295
REMARK  132  A    between atoms: _295  and  _296
REMARK  133  A    between atoms: _296  and  _297
REMARK  134  A    between atoms: _299  and  _301
REMARK  135  A    between atoms: _301  and  _302
REMARK  136  A    between atoms: _301  and  _304
REMARK  137  A    between atoms: _304  and  _305
REMARK  138  A    between atoms: _305  and  _306
REMARK  139  A    between atoms: _308  and  _310
REMARK  140  A    between atoms: _310  and  _311
REMARK  141  A    between atoms: _310  and  _313
REMARK  142  A    between atoms: _313  and  _314
REMARK  143  A    between atoms: _314  and  _315
REMARK  144  A    between atoms: _318  and  _320
REMARK  145  A    between atoms: _320  and  _321
REMARK  146  A    between atoms: _320  and  _323
REMARK  147  A    between atoms: _323  and  _324
REMARK  148  A    between atoms: _329  and  _330
REMARK  149  A    between atoms: _332  and  _334
REMARK  150  A    between atoms: _334  and  _335
REMARK  151  A    between atoms: _334  and  _337
REMARK  152  A    between atoms: _341  and  _342
REMARK  153  A    between atoms: _347  and  _349
REMARK  154  A    between atoms: _349  and  _350
REMARK  155  A    between atoms: _352  and  _354
REMARK  156  A    between atoms: _354  and  _355
REMARK  157  A    between atoms: _357  and  _359
REMARK  158  A    between atoms: _359  and  _360
REMARK  159  A    between atoms: _359  and  _362
REMARK  160  A    between atoms: _362  and  _363
REMARK  161  A    between atoms: _363  and  _364
REMARK  162  A    between atoms: _367  and  _369
REMARK  163  A    between atoms: _369  and  _370
REMARK  164  A    between atoms: _369  and  _372
REMARK  165  A    between atoms: _372  and  _373
REMARK  166  A    between atoms: _373  and  _374
REMARK  167  A    between atoms: _376  and  _378
REMARK  168  A    between atoms: _378  and  _379
REMARK  169  A    between atoms: _378  and  _381
REMARK  170  A    between atoms: _381  and  _382
REMARK  171  A    between atoms: _388  and  _390
REMARK  172  A    between atoms: _390  and  _391
REMARK  173  A    between atoms: _390  and  _393
REMARK  174  A    between atoms: _393  and  _394
REMARK  175  A    between atoms: _399  and  _400
REMARK  176  A    between atoms: _402  and  _404
REMARK  177  A    between atoms: _404  and  _405
REMARK  178  A    between atoms: _404  and  _407
REMARK  179  A    between atoms: _407  and  _408
REMARK  180  A    between atoms: _411  and  _413
REMARK  181  A    between atoms: _413  and  _414
REMARK  182  A    between atoms: _413  and  _416
REMARK  183  A    between atoms: _416  and  _417
REMARK  184  A    between atoms: _417  and  _418
REMARK  185  A    between atoms: _418  and  _419
REMARK  186  A    between atoms: _419  and  _420
REMARK  187  A    between atoms: _425  and  _426
REMARK  188  A    between atoms: _431  and  _433
REMARK  189  A    between atoms: _433  and  _434
REMARK  190  A    between atoms: _433  and  _436
REMARK  191  A    between atoms: _436  and  _437
REMARK  192  A    between atoms: _437  and  _438
REMARK  193  A    between atoms: _441  and  _443
REMARK  194  A    between atoms: _443  and  _444
REMARK  195  A    between atoms: _443  and  _446
REMARK  196  A    between atoms: _446  and  _447
REMARK  197  A    between atoms: _452  and  _454
REMARK  198  A    between atoms: _454  and  _455
REMARK  199  A    between atoms: _454  and  _457
REMARK  200  A    between atoms: _457  and  _458
REMARK  201  A    between atoms: _461  and  _463
REMARK  202  A    between atoms: _463  and  _464
REMARK  203  A    between atoms: _463  and  _466
REMARK  204  A    between atoms: _466  and  _467
REMARK  205  A    between atoms: _470  and  _472
REMARK  206  A    between atoms: _472  and  _473
REMARK  207  A    between atoms: _472  and  _475
REMARK  208  A    between atoms: _475  and  _476
REMARK  209  A    between atoms: _479  and  _481
REMARK  210  A    between atoms: _481  and  _482
REMARK  211  A    between atoms: _481  and  _484
REMARK  212  A    between atoms: _484  and  _485
REMARK  213  A    between atoms: _485  and  _486
REMARK  214  A    between atoms: _491  and  _493
REMARK  215  A    between atoms: _493  and  _494
REMARK  216  A    between atoms: _493  and  _496
REMARK  217  A    between atoms: _499  and  _501
REMARK  218  A    between atoms: _501  and  _502
REMARK  219  A    between atoms: _501  and  _504
REMARK  220  A    between atoms: _504  and  _505
REMARK  221  A    between atoms: _508  and  _510
REMARK  222  A    between atoms: _510  and  _511
REMARK  223  A    between atoms: _510  and  _513
REMARK  224  A    between atoms: _513  and  _514
REMARK  225  A    between atoms: _517  and  _519
REMARK  226  A    between atoms: _519  and  _520
REMARK  227  A    between atoms: _519  and  _522
REMARK  228  A    between atoms: _522  and  _523
REMARK  229  A    between atoms: _529  and  _531
REMARK  230  A    between atoms: _531  and  _532
REMARK  231  A    between atoms: _534  and  _536
REMARK  232  A    between atoms: _536  and  _537
REMARK  233  A    between atoms: _536  and  _539
REMARK  234  A    between atoms: _539  and  _540
REMARK  235  A    between atoms: _546  and  _548
REMARK  236  A    between atoms: _548  and  _549
REMARK  237  A    between atoms: _552  and  _554
REMARK  238  A    between atoms: _554  and  _555
REMARK  239  A    between atoms: _557  and  _559
REMARK  240  A    between atoms: _559  and  _560
REMARK  241  A    between atoms: _559  and  _562
REMARK  242  A    between atoms: _562  and  _563
REMARK  243  A    between atoms: _566  and  _568
REMARK  244  A    between atoms: _568  and  _569
REMARK  245  A    between atoms: _568  and  _571
REMARK  246  A    between atoms: _571  and  _572
REMARK  247  A    between atoms: _578  and  _580
REMARK  248  A    between atoms: _580  and  _581
REMARK  249  A    between atoms: _580  and  _583
REMARK  250  A    between atoms: _583  and  _584
REMARK  251  A    between atoms: _589  and  _590
REMARK                            x       y       z     vdW  Elec       q    Type
REMARK                         _______ _______ _______ _____ _____    ______ ____
ROOT
ATOM      1  O   HOH     1      19.953  11.751   0.912  0.00  0.00    +0.000 OA
ENDROOT
TORSDOF 0
REMARK  Name = ../refined-set-2016/1xh5/1xh5_pocket.pdb
REMARK  251 active torsions:
REMARK  status: ('A' for Active; 'I' for Inactive)
REMARK    1  A    between atoms: _1  and  _3
REMARK    2  A    between atoms: _3  and  _4
REMARK    3  A    between atoms: _3  and  _6
REMARK    4  A    between atoms: _6  and  _7
REMARK    5  A    between atoms: _10  and  _12
REMARK    6  A    between atoms: _12  and  _13
REMARK    7  A    between atoms: _12  and  _15
REMARK    8  A    between atoms: _15  and  _16
REMARK    9  A    between atoms: _19  and  _21
REMARK   10  A    between atoms: _21  and  _22
REMARK   11  A    between atoms: _24  and  _26
REMARK   12  A    between atoms: _26  and  _27
REMARK   13  A    between atoms: _26  and  _29
REMARK   14  A    between atoms: _29  and  _30
REMARK   15  A    between atoms: _33  and  _35
REMARK   16  A    between atoms: _35  and  _36
REMARK   17  A    between atoms: _38  and  _40
REMARK   18  A    between atoms: _40  and  _41
REMARK   19  A    between atoms: _40  and  _43
REMARK   20  A    between atoms: _43  and  _44
REMARK   21  A    between atoms: _46  and  _48
REMARK   22  A    between atoms: _48  and  _49
REMARK   23  A    between atoms: _48  and  _51
REMARK   24  A    between atoms: _51  and  _52
REMARK   25  A    between atoms: _58  and  _60
REMARK   26  A    between atoms: _60  and  _61
REMARK   27  A    between atoms: _63  and  _65
REMARK   28  A    between atoms: _65  and  _66
REMARK   29  A    between atoms: _65  and  _68
REMARK   30  A    between atoms: _68  and  _69
REMARK   31  A    between atoms: _69  and  _70
REMARK   32  A    between atoms: _70  and  _71
REMARK   33  A    between atoms: _80  and  _82
REMARK   34  A    between atoms: _82  and  _83
REMARK   35  A    between atoms: _82  and  _85
REMARK   36  A    between atoms: _88  and  _90
REMARK   37  A    between atoms: _90  and  _91
REMARK   38  A    between atoms: _90  and  _93
REMARK   39  A    between atoms: _93  and  _94
REMARK   40  A    between atoms: _94  and  _95
REMARK   41  A    between atoms: _97  and  _99
REMARK   42  A    between atoms: _99  and  _100
REMARK   43  A    between atoms: _99  and  _102
REMARK   44  A    between atoms: _102  and  _103
REMARK   45  A    between atoms: _106  and  _108
REMARK   46  A    between atoms: _108  and  _109
REMARK   47  A    between atoms: _108  and  _111
REMARK   48  A    between atoms: _111  and  _112
REMARK   49  A    between atoms: _117  and  _118
REMARK   50  A    between atoms: _120  and  _122
REMARK   51  A    between atoms: _122  and  _123
REMARK   52  A    between atoms: _126  and  _128
REMARK   53  A    between atoms: _128  and  _129
REMARK   54  A    between atoms: _128  and  _131
REMARK   55  A    between atoms: _131  and  _132
REMARK   56  A    between atoms: _132  and  _133
REMARK   57  A    between atoms: _135  and  _137
REMARK   58  A    between atoms: _137  and  _138
REMARK   59  A    between atoms: _137  and  _140
REMARK   60  A    between atoms: _140  and  _141
REMARK   61  A    between atoms: _141  and  _142
REMARK   62  A    between atoms: _142  and  _143
REMARK   63  A    between atoms: _143  and  _144
REMARK   64  A    between atoms: _148  and  _150
REMARK   65  A    between atoms: _150  and  _151
REMARK   66  A    between atoms: _150  and  _153
REMARK   67  A    between atoms: _153  and  _154
REMARK   68  A    between atoms: _157  and  _159
REMARK   69  A    between atoms: _159  and  _160
REMARK   70  A    between atoms: _159  and  _162
REMARK   71  A    between atoms: _162  and  _163
REMARK   72  A    between atoms: _166  and  _168
REMARK   73  A    between atoms: _168  and  _169
REMARK   74  A    between atoms: _168  and  _171
REMARK   75  A    between atoms: _171  and  _172
REMARK   76  A    between atoms: _175  and  _177
REMARK   77  A    between atoms: _177  and  _178
REMARK   78  A    between atoms: _177  and  _180
REMARK   79  A    between atoms: _180  and  _181
REMARK   80  A    between atoms: _181  and  _182
REMARK   81  A    between atoms: _182  and  _183
REMARK   82  A    between atoms: _183  and  _184
REMARK   83  A    between atoms: _188  and  _190
REMARK   84  A    between atoms: _190  and  _191
REMARK   85  A    between atoms: _190  and  _193
REMARK   86  A    between atoms: _196  and  _198
REMARK   87  A    between atoms: _198  and  _199
REMARK   88  A    between atoms: _198  and  _201
REMARK   89  A    between atoms: _201  and  _202
REMARK   90  A    between atoms: _205  and  _207
REMARK   91  A    between atoms: _207  and  _208
REMARK   92  A    between atoms: _207  and  _210
REMARK   93  A    between atoms: _210  and  _211
REMARK   94  A    between atoms: _211  and  _212
REMARK   95  A    between atoms: _212  and  _213
REMARK   96  A    between atoms: _213  and  _214
REMARK   97  A    between atoms: _218  and  _220
REMARK   98  A    between atoms: _220  and  _221
REMARK   99  A    between atoms: _220  and  _223
REMARK  100  A    between atoms: _223  and  _224
REMARK  101  A    between atoms: _224  and  _225
REMARK  102  A    between atoms: _230  and  _232
REMARK  103  A    between atoms: _232  and  _233
REMARK  104  A    between atoms: _232  and  _235
REMARK  105  A    between atoms: _235  and  _236
REMARK  106  A    between atoms: _241  and  _243
REMARK  107  A    between atoms: _243  and  _244
REMARK  108  A    between atoms: _243  and  _246
REMARK  109  A    between atoms: _246  and  _247
REMARK  110  A    between atoms: _250  and  _252
REMARK  111  A    between atoms: _252  and  _253
REMARK  112  A    between atoms: _252  and  _255
REMARK  113  A    between atoms: _255  and  _256
REMARK  114  A    between atoms: _256  and  _257
REMARK  115  A    between atoms: _260  and  _262
REMARK  116  A    between atoms: _262  and  _263
REMARK  117  A    between atoms: _262  and  _265
REMARK  118  A    between atoms: _265  and  _266
REMARK  119  A    between atoms: _269  and  _271
REMARK  120  A    between atoms: _271  and  _272
REMARK  121  A    between atoms: _271  and  _274
REMARK  122  A    between atoms: _277  and  _279
REMARK  123  A    between atoms: _279  and  _280
REMARK  124  A    between atoms: _279  and  _282
REMARK  125  A    between atoms: _282  and  _283
REMARK  126  A    between atoms: _283  and  _284
REMARK  127  A    between atoms: _284  and  _285
REMARK  128  A    between atoms: _285  and  _286
REMARK  129  A    between atoms: _290  and  _292
REMARK  130  A    between atoms: _292  and  _293
REMARK  131  A    between atoms: _292  and  _295
REMARK  132  A    between atoms: _295  and  _296
REMARK  133  A    between atoms: _296  and  _297
REMARK  134  A    between atoms: _299  and  _301
REMARK  135  A    between atoms: _301  and  _302
REMARK  136  A    between atoms: _301  and  _304
REMARK  137  A    between atoms: _304  and  _305
REMARK  138  A    between atoms: _305  and  _306
REMARK  139  A    between atoms: _308  and  _310
REMARK  140  A    between atoms: _310  and  _311
REMARK  141  A    between atoms: _310  and  _313
REMARK  142  A    between atoms: _313  and  _314
REMARK  143  A    between atoms: _314  and  _315
REMARK  144  A    between atoms: _318  and  _320
REMARK  145  A    between atoms: _320  and  _321
REMARK  146  A    between atoms: _320  and  _323
REMARK  147  A    between atoms: _323  and  _324
REMARK  148  A    between atoms: _329  and  _330
REMARK  149  A    between atoms: _332  and  _334
REMARK  150  A    between atoms: _334  and  _335
REMARK  151  A    between atoms: _334  and  _337
REMARK  152  A    between atoms: _341  and  _342
REMARK  153  A    between atoms: _347  and  _349
REMARK  154  A    between atoms: _349  and  _350
REMARK  155  A    between atoms: _352  and  _354
REMARK  156  A    between atoms: _354  and  _355
REMARK  157  A    between atoms: _357  and  _359
REMARK  158  A    between atoms: _359  and  _360
REMARK  159  A    between atoms: _359  and  _362
REMARK  160  A    between atoms: _362  and  _363
REMARK  161  A    between atoms: _363  and  _364
REMARK  162  A    between atoms: _367  and  _369
REMARK  163  A    between atoms: _369  and  _370
REMARK  164  A    between atoms: _369  and  _372
REMARK  165  A    between atoms: _372  and  _373
REMARK  166  A    between atoms: _373  and  _374
REMARK  167  A    between atoms: _376  and  _378
REMARK  168  A    between atoms: _378  and  _379
REMARK  169  A    between atoms: _378  and  _381
REMARK  170  A    between atoms: _381  and  _382
REMARK  171  A    between atoms: _388  and  _390
REMARK  172  A    between atoms: _390  and  _391
REMARK  173  A    between atoms: _390  and  _393
REMARK  174  A    between atoms: _393  and  _394
REMARK  175  A    between atoms: _399  and  _400
REMARK  176  A    between atoms: _402  and  _404
REMARK  177  A    between atoms: _404  and  _405
REMARK  178  A    between atoms: _404  and  _407
REMARK  179  A    between atoms: _407  and  _408
REMARK  180  A    between atoms: _411  and  _413
REMARK  181  A    between atoms: _413  and  _414
REMARK  182  A    between atoms: _413  and  _416
REMARK  183  A    between atoms: _416  and  _417
REMARK  184  A    between atoms: _417  and  _418
REMARK  185  A    between atoms: _418  and  _419
REMARK  186  A    between atoms: _419  and  _420
REMARK  187  A    between atoms: _425  and  _426
REMARK  188  A    between atoms: _431  and  _433
REMARK  189  A    between atoms: _433  and  _434
REMARK  190  A    between atoms: _433  and  _436
REMARK  191  A    between atoms: _436  and  _437
REMARK  192  A    between atoms: _437  and  _438
REMARK  193  A    between atoms: _441  and  _443
REMARK  194  A    between atoms: _443  and  _444
REMARK  195  A    between atoms: _443  and  _446
REMARK  196  A    between atoms: _446  and  _447
REMARK  197  A    between atoms: _452  and  _454
REMARK  198  A    between atoms: _454  and  _455
REMARK  199  A    between atoms: _454  and  _457
REMARK  200  A    between atoms: _457  and  _458
REMARK  201  A    between atoms: _461  and  _463
REMARK  202  A    between atoms: _463  and  _464
REMARK  203  A    between atoms: _463  and  _466
REMARK  204  A    between atoms: _466  and  _467
REMARK  205  A    between atoms: _470  and  _472
REMARK  206  A    between atoms: _472  and  _473
REMARK  207  A    between atoms: _472  and  _475
REMARK  208  A    between atoms: _475  and  _476
REMARK  209  A    between atoms: _479  and  _481
REMARK  210  A    between atoms: _481  and  _482
REMARK  211  A    between atoms: _481  and  _484
REMARK  212  A    between atoms: _484  and  _485
REMARK  213  A    between atoms: _485  and  _486
REMARK  214  A    between atoms: _491  and  _493
REMARK  215  A    between atoms: _493  and  _494
REMARK  216  A    between atoms: _493  and  _496
REMARK  217  A    between atoms: _499  and  _501
REMARK  218  A    between atoms: _501  and  _502
REMARK  219  A    between atoms: _501  and  _504
REMARK  220  A    between atoms: _504  and  _505
REMARK  221  A    between atoms: _508  and  _510
REMARK  222  A    between atoms: _510  and  _511
REMARK  223  A    between atoms: _510  and  _513
REMARK  224  A    between atoms: _513  and  _514
REMARK  225  A    between atoms: _517  and  _519
REMARK  226  A    between atoms: _519  and  _520
REMARK  227  A    between atoms: _519  and  _522
REMARK  228  A    between atoms: _522  and  _523
REMARK  229  A    between atoms: _529  and  _531
REMARK  230  A    between atoms: _531  and  _532
REMARK  231  A    between atoms: _534  and  _536
REMARK  232  A    between atoms: _536  and  _537
REMARK  233  A    between atoms: _536  and  _539
REMARK  234  A    between atoms: _539  and  _540
REMARK  235  A    between atoms: _546  and  _548
REMARK  236  A    between atoms: _548  and  _549
REMARK  237  A    between atoms: _552  and  _554
REMARK  238  A    between atoms: _554  and  _555
REMARK  239  A    between atoms: _557  and  _559
REMARK  240  A    between atoms: _559  and  _560
REMARK  241  A    between atoms: _559  and  _562
REMARK  242  A    between atoms: _562  and  _563
REMARK  243  A    between atoms: _566  and  _568
REMARK  244  A    between atoms: _568  and  _569
REMARK  245  A    between atoms: _568  and  _571
REMARK  246  A    between atoms: _571  and  _572
REMARK  247  A    between atoms: _578  and  _580
REMARK  248  A    between atoms: _580  and  _581
REMARK  249  A    between atoms: _580  and  _583
REMARK  250  A    between atoms: _583  and  _584
REMARK  251  A    between atoms: _589  and  _590
REMARK                            x       y       z     vdW  Elec       q    Type
REMARK                         _______ _______ _______ _____ _____    ______ ____
ROOT
ATOM      1  O   HOH     1      14.832   8.193  -2.404  0.00  0.00    +0.000 OA
ENDROOT
TORSDOF 0
REMARK  Name = ../refined-set-2016/1xh5/1xh5_pocket.pdb
REMARK  251 active torsions:
REMARK  status: ('A' for Active; 'I' for Inactive)
REMARK    1  A    between atoms: _1  and  _3
REMARK    2  A    between atoms: _3  and  _4
REMARK    3  A    between atoms: _3  and  _6
REMARK    4  A    between atoms: _6  and  _7
REMARK    5  A    between atoms: _10  and  _12
REMARK    6  A    between atoms: _12  and  _13
REMARK    7  A    between atoms: _12  and  _15
REMARK    8  A    between atoms: _15  and  _16
REMARK    9  A    between atoms: _19  and  _21
REMARK   10  A    between atoms: _21  and  _22
REMARK   11  A    between atoms: _24  and  _26
REMARK   12  A    between atoms: _26  and  _27
REMARK   13  A    between atoms: _26  and  _29
REMARK   14  A    between atoms: _29  and  _30
REMARK   15  A    between atoms: _33  and  _35
REMARK   16  A    between atoms: _35  and  _36
REMARK   17  A    between atoms: _38  and  _40
REMARK   18  A    between atoms: _40  and  _41
REMARK   19  A    between atoms: _40  and  _43
REMARK   20  A    between atoms: _43  and  _44
REMARK   21  A    between atoms: _46  and  _48
REMARK   22  A    between atoms: _48  and  _49
REMARK   23  A    between atoms: _48  and  _51
REMARK   24  A    between atoms: _51  and  _52
REMARK   25  A    between atoms: _58  and  _60
REMARK   26  A    between atoms: _60  and  _61
REMARK   27  A    between atoms: _63  and  _65
REMARK   28  A    between atoms: _65  and  _66
REMARK   29  A    between atoms: _65  and  _68
REMARK   30  A    between atoms: _68  and  _69
REMARK   31  A    between atoms: _69  and  _70
REMARK   32  A    between atoms: _70  and  _71
REMARK   33  A    between atoms: _80  and  _82
REMARK   34  A    between atoms: _82  and  _83
REMARK   35  A    between atoms: _82  and  _85
REMARK   36  A    between atoms: _88  and  _90
REMARK   37  A    between atoms: _90  and  _91
REMARK   38  A    between atoms: _90  and  _93
REMARK   39  A    between atoms: _93  and  _94
REMARK   40  A    between atoms: _94  and  _95
REMARK   41  A    between atoms: _97  and  _99
REMARK   42  A    between atoms: _99  and  _100
REMARK   43  A    between atoms: _99  and  _102
REMARK   44  A    between atoms: _102  and  _103
REMARK   45  A    between atoms: _106  and  _108
REMARK   46  A    between atoms: _108  and  _109
REMARK   47  A    between atoms: _108  and  _111
REMARK   48  A    between atoms: _111  and  _112
REMARK   49  A    between atoms: _117  and  _118
REMARK   50  A    between atoms: _120  and  _122
REMARK   51  A    between atoms: _122  and  _123
REMARK   52  A    between atoms: _126  and  _128
REMARK   53  A    between atoms: _128  and  _129
REMARK   54  A    between atoms: _128  and  _131
REMARK   55  A    between atoms: _131  and  _132
REMARK   56  A    between atoms: _132  and  _133
REMARK   57  A    between atoms: _135  and  _137
REMARK   58  A    between atoms: _137  and  _138
REMARK   59  A    between atoms: _137  and  _140
REMARK   60  A    between atoms: _140  and  _141
REMARK   61  A    between atoms: _141  and  _142
REMARK   62  A    between atoms: _142  and  _143
REMARK   63  A    between atoms: _143  and  _144
REMARK   64  A    between atoms: _148  and  _150
REMARK   65  A    between atoms: _150  and  _151
REMARK   66  A    between atoms: _150  and  _153
REMARK   67  A    between atoms: _153  and  _154
REMARK   68  A    between atoms: _157  and  _159
REMARK   69  A    between atoms: _159  and  _160
REMARK   70  A    between atoms: _159  and  _162
REMARK   71  A    between atoms: _162  and  _163
REMARK   72  A    between atoms: _166  and  _168
REMARK   73  A    between atoms: _168  and  _169
REMARK   74  A    between atoms: _168  and  _171
REMARK   75  A    between atoms: _171  and  _172
REMARK   76  A    between atoms: _175  and  _177
REMARK   77  A    between atoms: _177  and  _178
REMARK   78  A    between atoms: _177  and  _180
REMARK   79  A    between atoms: _180  and  _181
REMARK   80  A    between atoms: _181  and  _182
REMARK   81  A    between atoms: _182  and  _183
REMARK   82  A    between atoms: _183  and  _184
REMARK   83  A    between atoms: _188  and  _190
REMARK   84  A    between atoms: _190  and  _191
REMARK   85  A    between atoms: _190  and  _193
REMARK   86  A    between atoms: _196  and  _198
REMARK   87  A    between atoms: _198  and  _199
REMARK   88  A    between atoms: _198  and  _201
REMARK   89  A    between atoms: _201  and  _202
REMARK   90  A    between atoms: _205  and  _207
REMARK   91  A    between atoms: _207  and  _208
REMARK   92  A    between atoms: _207  and  _210
REMARK   93  A    between atoms: _210  and  _211
REMARK   94  A    between atoms: _211  and  _212
REMARK   95  A    between atoms: _212  and  _213
REMARK   96  A    between atoms: _213  and  _214
REMARK   97  A    between atoms: _218  and  _220
REMARK   98  A    between atoms: _220  and  _221
REMARK   99  A    between atoms: _220  and  _223
REMARK  100  A    between atoms: _223  and  _224
REMARK  101  A    between atoms: _224  and  _225
REMARK  102  A    between atoms: _230  and  _232
REMARK  103  A    between atoms: _232  and  _233
REMARK  104  A    between atoms: _232  and  _235
REMARK  105  A    between atoms: _235  and  _236
REMARK  106  A    between atoms: _241  and  _243
REMARK  107  A    between atoms: _243  and  _244
REMARK  108  A    between atoms: _243  and  _246
REMARK  109  A    between atoms: _246  and  _247
REMARK  110  A    between atoms: _250  and  _252
REMARK  111  A    between atoms: _252  and  _253
REMARK  112  A    between atoms: _252  and  _255
REMARK  113  A    between atoms: _255  and  _256
REMARK  114  A    between atoms: _256  and  _257
REMARK  115  A    between atoms: _260  and  _262
REMARK  116  A    between atoms: _262  and  _263
REMARK  117  A    between atoms: _262  and  _265
REMARK  118  A    between atoms: _265  and  _266
REMARK  119  A    between atoms: _269  and  _271
REMARK  120  A    between atoms: _271  and  _272
REMARK  121  A    between atoms: _271  and  _274
REMARK  122  A    between atoms: _277  and  _279
REMARK  123  A    between atoms: _279  and  _280
REMARK  124  A    between atoms: _279  and  _282
REMARK  125  A    between atoms: _282  and  _283
REMARK  126  A    between atoms: _283  and  _284
REMARK  127  A    between atoms: _284  and  _285
REMARK  128  A    between atoms: _285  and  _286
REMARK  129  A    between atoms: _290  and  _292
REMARK  130  A    between atoms: _292  and  _293
REMARK  131  A    between atoms: _292  and  _295
REMARK  132  A    between atoms: _295  and  _296
REMARK  133  A    between atoms: _296  and  _297
REMARK  134  A    between atoms: _299  and  _301
REMARK  135  A    between atoms: _301  and  _302
REMARK  136  A    between atoms: _301  and  _304
REMARK  137  A    between atoms: _304  and  _305
REMARK  138  A    between atoms: _305  and  _306
REMARK  139  A    between atoms: _308  and  _310
REMARK  140  A    between atoms: _310  and  _311
REMARK  141  A    between atoms: _310  and  _313
REMARK  142  A    between atoms: _313  and  _314
REMARK  143  A    between atoms: _314  and  _315
REMARK  144  A    between atoms: _318  and  _320
REMARK  145  A    between atoms: _320  and  _321
REMARK  146  A    between atoms: _320  and  _323
REMARK  147  A    between atoms: _323  and  _324
REMARK  148  A    between atoms: _329  and  _330
REMARK  149  A    between atoms: _332  and  _334
REMARK  150  A    between atoms: _334  and  _335
REMARK  151  A    between atoms: _334  and  _337
REMARK  152  A    between atoms: _341  and  _342
REMARK  153  A    between atoms: _347  and  _349
REMARK  154  A    between atoms: _349  and  _350
REMARK  155  A    between atoms: _352  and  _354
REMARK  156  A    between atoms: _354  and  _355
REMARK  157  A    between atoms: _357  and  _359
REMARK  158  A    between atoms: _359  and  _360
REMARK  159  A    between atoms: _359  and  _362
REMARK  160  A    between atoms: _362  and  _363
REMARK  161  A    between atoms: _363  and  _364
REMARK  162  A    between atoms: _367  and  _369
REMARK  163  A    between atoms: _369  and  _370
REMARK  164  A    between atoms: _369  and  _372
REMARK  165  A    between atoms: _372  and  _373
REMARK  166  A    between atoms: _373  and  _374
REMARK  167  A    between atoms: _376  and  _378
REMARK  168  A    between atoms: _378  and  _379
REMARK  169  A    between atoms: _378  and  _381
REMARK  170  A    between atoms: _381  and  _382
REMARK  171  A    between atoms: _388  and  _390
REMARK  172  A    between atoms: _390  and  _391
REMARK  173  A    between atoms: _390  and  _393
REMARK  174  A    between atoms: _393  and  _394
REMARK  175  A    between atoms: _399  and  _400
REMARK  176  A    between atoms: _402  and  _404
REMARK  177  A    between atoms: _404  and  _405
REMARK  178  A    between atoms: _404  and  _407
REMARK  179  A    between atoms: _407  and  _408
REMARK  180  A    between atoms: _411  and  _413
REMARK  181  A    between atoms: _413  and  _414
REMARK  182  A    between atoms: _413  and  _416
REMARK  183  A    between atoms: _416  and  _417
REMARK  184  A    between atoms: _417  and  _418
REMARK  185  A    between atoms: _418  and  _419
REMARK  186  A    between atoms: _419  and  _420
REMARK  187  A    between atoms: _425  and  _426
REMARK  188  A    between atoms: _431  and  _433
REMARK  189  A    between atoms: _433  and  _434
REMARK  190  A    between atoms: _433  and  _436
REMARK  191  A    between atoms: _436  and  _437
REMARK  192  A    between atoms: _437  and  _438
REMARK  193  A    between atoms: _441  and  _443
REMARK  194  A    between atoms: _443  and  _444
REMARK  195  A    between atoms: _443  and  _446
REMARK  196  A    between atoms: _446  and  _447
REMARK  197  A    between atoms: _452  and  _454
REMARK  198  A    between atoms: _454  and  _455
REMARK  199  A    between atoms: _454  and  _457
REMARK  200  A    between atoms: _457  and  _458
REMARK  201  A    between atoms: _461  and  _463
REMARK  202  A    between atoms: _463  and  _464
REMARK  203  A    between atoms: _463  and  _466
REMARK  204  A    between atoms: _466  and  _467
REMARK  205  A    between atoms: _470  and  _472
REMARK  206  A    between atoms: _472  and  _473
REMARK  207  A    between atoms: _472  and  _475
REMARK  208  A    between atoms: _475  and  _476
REMARK  209  A    between atoms: _479  and  _481
REMARK  210  A    between atoms: _481  and  _482
REMARK  211  A    between atoms: _481  and  _484
REMARK  212  A    between atoms: _484  and  _485
REMARK  213  A    between atoms: _485  and  _486
REMARK  214  A    between atoms: _491  and  _493
REMARK  215  A    between atoms: _493  and  _494
REMARK  216  A    between atoms: _493  and  _496
REMARK  217  A    between atoms: _499  and  _501
REMARK  218  A    between atoms: _501  and  _502
REMARK  219  A    between atoms: _501  and  _504
REMARK  220  A    between atoms: _504  and  _505
REMARK  221  A    between atoms: _508  and  _510
REMARK  222  A    between atoms: _510  and  _511
REMARK  223  A    between atoms: _510  and  _513
REMARK  224  A    between atoms: _513  and  _514
REMARK  225  A    between atoms: _517  and  _519
REMARK  226  A    between atoms: _519  and  _520
REMARK  227  A    between atoms: _519  and  _522
REMARK  228  A    between atoms: _522  and  _523
REMARK  229  A    between atoms: _529  and  _531
REMARK  230  A    between atoms: _531  and  _532
REMARK  231  A    between atoms: _534  and  _536
REMARK  232  A    between atoms: _536  and  _537
REMARK  233  A    between atoms: _536  and  _539
REMARK  234  A    between atoms: _539  and  _540
REMARK  235  A    between atoms: _546  and  _548
REMARK  236  A    between atoms: _548  and  _549
REMARK  237  A    between atoms: _552  and  _554
REMARK  238  A    between atoms: _554  and  _555
REMARK  239  A    between atoms: _557  and  _559
REMARK  240  A    between atoms: _559  and  _560
REMARK  241  A    between atoms: _559  and  _562
REMARK  242  A    between atoms: _562  and  _563
REMARK  243  A    between atoms: _566  and  _568
REMARK  244  A    between atoms: _568  and  _569
REMARK  245  A    between atoms: _568  and  _571
REMARK  246  A    between atoms: _571  and  _572
REMARK  247  A    between atoms: _578  and  _580
REMARK  248  A    between atoms: _580  and  _581
REMARK  249  A    between atoms: _580  and  _583
REMARK  250  A    between atoms: _583  and  _584
REMARK  251  A    between atoms: _589  and  _590
REMARK                            x       y       z     vdW  Elec       q    Type
REMARK                         _______ _______ _______ _____ _____    ______ ____
ROOT
ATOM      1  O   HOH     1      18.463   7.985   0.468  0.00  0.00    +0.000 OA
ENDROOT
TORSDOF 0
REMARK  Name = ../refined-set-2016/1xh5/1xh5_pocket.pdb
REMARK  251 active torsions:
REMARK  status: ('A' for Active; 'I' for Inactive)
REMARK    1  A    between atoms: _1  and  _3
REMARK    2  A    between atoms: _3  and  _4
REMARK    3  A    between atoms: _3  and  _6
REMARK    4  A    between atoms: _6  and  _7
REMARK    5  A    between atoms: _10  and  _12
REMARK    6  A    between atoms: _12  and  _13
REMARK    7  A    between atoms: _12  and  _15
REMARK    8  A    between atoms: _15  and  _16
REMARK    9  A    between atoms: _19  and  _21
REMARK   10  A    between atoms: _21  and  _22
REMARK   11  A    between atoms: _24  and  _26
REMARK   12  A    between atoms: _26  and  _27
REMARK   13  A    between atoms: _26  and  _29
REMARK   14  A    between atoms: _29  and  _30
REMARK   15  A    between atoms: _33  and  _35
REMARK   16  A    between atoms: _35  and  _36
REMARK   17  A    between atoms: _38  and  _40
REMARK   18  A    between atoms: _40  and  _41
REMARK   19  A    between atoms: _40  and  _43
REMARK   20  A    between atoms: _43  and  _44
REMARK   21  A    between atoms: _46  and  _48
REMARK   22  A    between atoms: _48  and  _49
REMARK   23  A    between atoms: _48  and  _51
REMARK   24  A    between atoms: _51  and  _52
REMARK   25  A    between atoms: _58  and  _60
REMARK   26  A    between atoms: _60  and  _61
REMARK   27  A    between atoms: _63  and  _65
REMARK   28  A    between atoms: _65  and  _66
REMARK   29  A    between atoms: _65  and  _68
REMARK   30  A    between atoms: _68  and  _69
REMARK   31  A    between atoms: _69  and  _70
REMARK   32  A    between atoms: _70  and  _71
REMARK   33  A    between atoms: _80  and  _82
REMARK   34  A    between atoms: _82  and  _83
REMARK   35  A    between atoms: _82  and  _85
REMARK   36  A    between atoms: _88  and  _90
REMARK   37  A    between atoms: _90  and  _91
REMARK   38  A    between atoms: _90  and  _93
REMARK   39  A    between atoms: _93  and  _94
REMARK   40  A    between atoms: _94  and  _95
REMARK   41  A    between atoms: _97  and  _99
REMARK   42  A    between atoms: _99  and  _100
REMARK   43  A    between atoms: _99  and  _102
REMARK   44  A    between atoms: _102  and  _103
REMARK   45  A    between atoms: _106  and  _108
REMARK   46  A    between atoms: _108  and  _109
REMARK   47  A    between atoms: _108  and  _111
REMARK   48  A    between atoms: _111  and  _112
REMARK   49  A    between atoms: _117  and  _118
REMARK   50  A    between atoms: _120  and  _122
REMARK   51  A    between atoms: _122  and  _123
REMARK   52  A    between atoms: _126  and  _128
REMARK   53  A    between atoms: _128  and  _129
REMARK   54  A    between atoms: _128  and  _131
REMARK   55  A    between atoms: _131  and  _132
REMARK   56  A    between atoms: _132  and  _133
REMARK   57  A    between atoms: _135  and  _137
REMARK   58  A    between atoms: _137  and  _138
REMARK   59  A    between atoms: _137  and  _140
REMARK   60  A    between atoms: _140  and  _141
REMARK   61  A    between atoms: _141  and  _142
REMARK   62  A    between atoms: _142  and  _143
REMARK   63  A    between atoms: _143  and  _144
REMARK   64  A    between atoms: _148  and  _150
REMARK   65  A    between atoms: _150  and  _151
REMARK   66  A    between atoms: _150  and  _153
REMARK   67  A    between atoms: _153  and  _154
REMARK   68  A    between atoms: _157  and  _159
REMARK   69  A    between atoms: _159  and  _160
REMARK   70  A    between atoms: _159  and  _162
REMARK   71  A    between atoms: _162  and  _163
REMARK   72  A    between atoms: _166  and  _168
REMARK   73  A    between atoms: _168  and  _169
REMARK   74  A    between atoms: _168  and  _171
REMARK   75  A    between atoms: _171  and  _172
REMARK   76  A    between atoms: _175  and  _177
REMARK   77  A    between atoms: _177  and  _178
REMARK   78  A    between atoms: _177  and  _180
REMARK   79  A    between atoms: _180  and  _181
REMARK   80  A    between atoms: _181  and  _182
REMARK   81  A    between atoms: _182  and  _183
REMARK   82  A    between atoms: _183  and  _184
REMARK   83  A    between atoms: _188  and  _190
REMARK   84  A    between atoms: _190  and  _191
REMARK   85  A    between atoms: _190  and  _193
REMARK   86  A    between atoms: _196  and  _198
REMARK   87  A    between atoms: _198  and  _199
REMARK   88  A    between atoms: _198  and  _201
REMARK   89  A    between atoms: _201  and  _202
REMARK   90  A    between atoms: _205  and  _207
REMARK   91  A    between atoms: _207  and  _208
REMARK   92  A    between atoms: _207  and  _210
REMARK   93  A    between atoms: _210  and  _211
REMARK   94  A    between atoms: _211  and  _212
REMARK   95  A    between atoms: _212  and  _213
REMARK   96  A    between atoms: _213  and  _214
REMARK   97  A    between atoms: _218  and  _220
REMARK   98  A    between atoms: _220  and  _221
REMARK   99  A    between atoms: _220  and  _223
REMARK  100  A    between atoms: _223  and  _224
REMARK  101  A    between atoms: _224  and  _225
REMARK  102  A    between atoms: _230  and  _232
REMARK  103  A    between atoms: _232  and  _233
REMARK  104  A    between atoms: _232  and  _235
REMARK  105  A    between atoms: _235  and  _236
REMARK  106  A    between atoms: _241  and  _243
REMARK  107  A    between atoms: _243  and  _244
REMARK  108  A    between atoms: _243  and  _246
REMARK  109  A    between atoms: _246  and  _247
REMARK  110  A    between atoms: _250  and  _252
REMARK  111  A    between atoms: _252  and  _253
REMARK  112  A    between atoms: _252  and  _255
REMARK  113  A    between atoms: _255  and  _256
REMARK  114  A    between atoms: _256  and  _257
REMARK  115  A    between atoms: _260  and  _262
REMARK  116  A    between atoms: _262  and  _263
REMARK  117  A    between atoms: _262  and  _265
REMARK  118  A    between atoms: _265  and  _266
REMARK  119  A    between atoms: _269  and  _271
REMARK  120  A    between atoms: _271  and  _272
REMARK  121  A    between atoms: _271  and  _274
REMARK  122  A    between atoms: _277  and  _279
REMARK  123  A    between atoms: _279  and  _280
REMARK  124  A    between atoms: _279  and  _282
REMARK  125  A    between atoms: _282  and  _283
REMARK  126  A    between atoms: _283  and  _284
REMARK  127  A    between atoms: _284  and  _285
REMARK  128  A    between atoms: _285  and  _286
REMARK  129  A    between atoms: _290  and  _292
REMARK  130  A    between atoms: _292  and  _293
REMARK  131  A    between atoms: _292  and  _295
REMARK  132  A    between atoms: _295  and  _296
REMARK  133  A    between atoms: _296  and  _297
REMARK  134  A    between atoms: _299  and  _301
REMARK  135  A    between atoms: _301  and  _302
REMARK  136  A    between atoms: _301  and  _304
REMARK  137  A    between atoms: _304  and  _305
REMARK  138  A    between atoms: _305  and  _306
REMARK  139  A    between atoms: _308  and  _310
REMARK  140  A    between atoms: _310  and  _311
REMARK  141  A    between atoms: _310  and  _313
REMARK  142  A    between atoms: _313  and  _314
REMARK  143  A    between atoms: _314  and  _315
REMARK  144  A    between atoms: _318  and  _320
REMARK  145  A    between atoms: _320  and  _321
REMARK  146  A    between atoms: _320  and  _323
REMARK  147  A    between atoms: _323  and  _324
REMARK  148  A    between atoms: _329  and  _330
REMARK  149  A    between atoms: _332  and  _334
REMARK  150  A    between atoms: _334  and  _335
REMARK  151  A    between atoms: _334  and  _337
REMARK  152  A    between atoms: _341  and  _342
REMARK  153  A    between atoms: _347  and  _349
REMARK  154  A    between atoms: _349  and  _350
REMARK  155  A    between atoms: _352  and  _354
REMARK  156  A    between atoms: _354  and  _355
REMARK  157  A    between atoms: _357  and  _359
REMARK  158  A    between atoms: _359  and  _360
REMARK  159  A    between atoms: _359  and  _362
REMARK  160  A    between atoms: _362  and  _363
REMARK  161  A    between atoms: _363  and  _364
REMARK  162  A    between atoms: _367  and  _369
REMARK  163  A    between atoms: _369  and  _370
REMARK  164  A    between atoms: _369  and  _372
REMARK  165  A    between atoms: _372  and  _373
REMARK  166  A    between atoms: _373  and  _374
REMARK  167  A    between atoms: _376  and  _378
REMARK  168  A    between atoms: _378  and  _379
REMARK  169  A    between atoms: _378  and  _381
REMARK  170  A    between atoms: _381  and  _382
REMARK  171  A    between atoms: _388  and  _390
REMARK  172  A    between atoms: _390  and  _391
REMARK  173  A    between atoms: _390  and  _393
REMARK  174  A    between atoms: _393  and  _394
REMARK  175  A    between atoms: _399  and  _400
REMARK  176  A    between atoms: _402  and  _404
REMARK  177  A    between atoms: _404  and  _405
REMARK  178  A    between atoms: _404  and  _407
REMARK  179  A    between atoms: _407  and  _408
REMARK  180  A    between atoms: _411  and  _413
REMARK  181  A    between atoms: _413  and  _414
REMARK  182  A    between atoms: _413  and  _416
REMARK  183  A    between atoms: _416  and  _417
REMARK  184  A    between atoms: _417  and  _418
REMARK  185  A    between atoms: _418  and  _419
REMARK  186  A    between atoms: _419  and  _420
REMARK  187  A    between atoms: _425  and  _426
REMARK  188  A    between atoms: _431  and  _433
REMARK  189  A    between atoms: _433  and  _434
REMARK  190  A    between atoms: _433  and  _436
REMARK  191  A    between atoms: _436  and  _437
REMARK  192  A    between atoms: _437  and  _438
REMARK  193  A    between atoms: _441  and  _443
REMARK  194  A    between atoms: _443  and  _444
REMARK  195  A    between atoms: _443  and  _446
REMARK  196  A    between atoms: _446  and  _447
REMARK  197  A    between atoms: _452  and  _454
REMARK  198  A    between atoms: _454  and  _455
REMARK  199  A    between atoms: _454  and  _457
REMARK  200  A    between atoms: _457  and  _458
REMARK  201  A    between atoms: _461  and  _463
REMARK  202  A    between atoms: _463  and  _464
REMARK  203  A    between atoms: _463  and  _466
REMARK  204  A    between atoms: _466  and  _467
REMARK  205  A    between atoms: _470  and  _472
REMARK  206  A    between atoms: _472  and  _473
REMARK  207  A    between atoms: _472  and  _475
REMARK  208  A    between atoms: _475  and  _476
REMARK  209  A    between atoms: _479  and  _481
REMARK  210  A    between atoms: _481  and  _482
REMARK  211  A    between atoms: _481  and  _484
REMARK  212  A    between atoms: _484  and  _485
REMARK  213  A    between atoms: _485  and  _486
REMARK  214  A    between atoms: _491  and  _493
REMARK  215  A    between atoms: _493  and  _494
REMARK  216  A    between atoms: _493  and  _496
REMARK  217  A    between atoms: _499  and  _501
REMARK  218  A    between atoms: _501  and  _502
REMARK  219  A    between atoms: _501  and  _504
REMARK  220  A    between atoms: _504  and  _505
REMARK  221  A    between atoms: _508  and  _510
REMARK  222  A    between atoms: _510  and  _511
REMARK  223  A    between atoms: _510  and  _513
REMARK  224  A    between atoms: _513  and  _514
REMARK  225  A    between atoms: _517  and  _519
REMARK  226  A    between atoms: _519  and  _520
REMARK  227  A    between atoms: _519  and  _522
REMARK  228  A    between atoms: _522  and  _523
REMARK  229  A    between atoms: _529  and  _531
REMARK  230  A    between atoms: _531  and  _532
REMARK  231  A    between atoms: _534  and  _536
REMARK  232  A    between atoms: _536  and  _537
REMARK  233  A    between atoms: _536  and  _539
REMARK  234  A    between atoms: _539  and  _540
REMARK  235  A    between atoms: _546  and  _548
REMARK  236  A    between atoms: _548  and  _549
REMARK  237  A    between atoms: _552  and  _554
REMARK  238  A    between atoms: _554  and  _555
REMARK  239  A    between atoms: _557  and  _559
REMARK  240  A    between atoms: _559  and  _560
REMARK  241  A    between atoms: _559  and  _562
REMARK  242  A    between atoms: _562  and  _563
REMARK  243  A    between atoms: _566  and  _568
REMARK  244  A    between atoms: _568  and  _569
REMARK  245  A    between atoms: _568  and  _571
REMARK  246  A    between atoms: _571  and  _572
REMARK  247  A    between atoms: _578  and  _580
REMARK  248  A    between atoms: _580  and  _581
REMARK  249  A    between atoms: _580  and  _583
REMARK  250  A    between atoms: _583  and  _584
REMARK  251  A    between atoms: _589  and  _590
REMARK                            x       y       z     vdW  Elec       q    Type
REMARK                         _______ _______ _______ _____ _____    ______ ____
ROOT
ATOM      1  O   HOH     1      22.050   8.063  -9.992  0.00  0.00    +0.000 OA
ENDROOT
TORSDOF 0
REMARK  Name = ../refined-set-2016/1xh5/1xh5_pocket.pdb
REMARK  251 active torsions:
REMARK  status: ('A' for Active; 'I' for Inactive)
REMARK    1  A    between atoms: _1  and  _3
REMARK    2  A    between atoms: _3  and  _4
REMARK    3  A    between atoms: _3  and  _6
REMARK    4  A    between atoms: _6  and  _7
REMARK    5  A    between atoms: _10  and  _12
REMARK    6  A    between atoms: _12  and  _13
REMARK    7  A    between atoms: _12  and  _15
REMARK    8  A    between atoms: _15  and  _16
REMARK    9  A    between atoms: _19  and  _21
REMARK   10  A    between atoms: _21  and  _22
REMARK   11  A    between atoms: _24  and  _26
REMARK   12  A    between atoms: _26  and  _27
REMARK   13  A    between atoms: _26  and  _29
REMARK   14  A    between atoms: _29  and  _30
REMARK   15  A    between atoms: _33  and  _35
REMARK   16  A    between atoms: _35  and  _36
REMARK   17  A    between atoms: _38  and  _40
REMARK   18  A    between atoms: _40  and  _41
REMARK   19  A    between atoms: _40  and  _43
REMARK   20  A    between atoms: _43  and  _44
REMARK   21  A    between atoms: _46  and  _48
REMARK   22  A    between atoms: _48  and  _49
REMARK   23  A    between atoms: _48  and  _51
REMARK   24  A    between atoms: _51  and  _52
REMARK   25  A    between atoms: _58  and  _60
REMARK   26  A    between atoms: _60  and  _61
REMARK   27  A    between atoms: _63  and  _65
REMARK   28  A    between atoms: _65  and  _66
REMARK   29  A    between atoms: _65  and  _68
REMARK   30  A    between atoms: _68  and  _69
REMARK   31  A    between atoms: _69  and  _70
REMARK   32  A    between atoms: _70  and  _71
REMARK   33  A    between atoms: _80  and  _82
REMARK   34  A    between atoms: _82  and  _83
REMARK   35  A    between atoms: _82  and  _85
REMARK   36  A    between atoms: _88  and  _90
REMARK   37  A    between atoms: _90  and  _91
REMARK   38  A    between atoms: _90  and  _93
REMARK   39  A    between atoms: _93  and  _94
REMARK   40  A    between atoms: _94  and  _95
REMARK   41  A    between atoms: _97  and  _99
REMARK   42  A    between atoms: _99  and  _100
REMARK   43  A    between atoms: _99  and  _102
REMARK   44  A    between atoms: _102  and  _103
REMARK   45  A    between atoms: _106  and  _108
REMARK   46  A    between atoms: _108  and  _109
REMARK   47  A    between atoms: _108  and  _111
REMARK   48  A    between atoms: _111  and  _112
REMARK   49  A    between atoms: _117  and  _118
REMARK   50  A    between atoms: _120  and  _122
REMARK   51  A    between atoms: _122  and  _123
REMARK   52  A    between atoms: _126  and  _128
REMARK   53  A    between atoms: _128  and  _129
REMARK   54  A    between atoms: _128  and  _131
REMARK   55  A    between atoms: _131  and  _132
REMARK   56  A    between atoms: _132  and  _133
REMARK   57  A    between atoms: _135  and  _137
REMARK   58  A    between atoms: _137  and  _138
REMARK   59  A    between atoms: _137  and  _140
REMARK   60  A    between atoms: _140  and  _141
REMARK   61  A    between atoms: _141  and  _142
REMARK   62  A    between atoms: _142  and  _143
REMARK   63  A    between atoms: _143  and  _144
REMARK   64  A    between atoms: _148  and  _150
REMARK   65  A    between atoms: _150  and  _151
REMARK   66  A    between atoms: _150  and  _153
REMARK   67  A    between atoms: _153  and  _154
REMARK   68  A    between atoms: _157  and  _159
REMARK   69  A    between atoms: _159  and  _160
REMARK   70  A    between atoms: _159  and  _162
REMARK   71  A    between atoms: _162  and  _163
REMARK   72  A    between atoms: _166  and  _168
REMARK   73  A    between atoms: _168  and  _169
REMARK   74  A    between atoms: _168  and  _171
REMARK   75  A    between atoms: _171  and  _172
REMARK   76  A    between atoms: _175  and  _177
REMARK   77  A    between atoms: _177  and  _178
REMARK   78  A    between atoms: _177  and  _180
REMARK   79  A    between atoms: _180  and  _181
REMARK   80  A    between atoms: _181  and  _182
REMARK   81  A    between atoms: _182  and  _183
REMARK   82  A    between atoms: _183  and  _184
REMARK   83  A    between atoms: _188  and  _190
REMARK   84  A    between atoms: _190  and  _191
REMARK   85  A    between atoms: _190  and  _193
REMARK   86  A    between atoms: _196  and  _198
REMARK   87  A    between atoms: _198  and  _199
REMARK   88  A    between atoms: _198  and  _201
REMARK   89  A    between atoms: _201  and  _202
REMARK   90  A    between atoms: _205  and  _207
REMARK   91  A    between atoms: _207  and  _208
REMARK   92  A    between atoms: _207  and  _210
REMARK   93  A    between atoms: _210  and  _211
REMARK   94  A    between atoms: _211  and  _212
REMARK   95  A    between atoms: _212  and  _213
REMARK   96  A    between atoms: _213  and  _214
REMARK   97  A    between atoms: _218  and  _220
REMARK   98  A    between atoms: _220  and  _221
REMARK   99  A    between atoms: _220  and  _223
REMARK  100  A    between atoms: _223  and  _224
REMARK  101  A    between atoms: _224  and  _225
REMARK  102  A    between atoms: _230  and  _232
REMARK  103  A    between atoms: _232  and  _233
REMARK  104  A    between atoms: _232  and  _235
REMARK  105  A    between atoms: _235  and  _236
REMARK  106  A    between atoms: _241  and  _243
REMARK  107  A    between atoms: _243  and  _244
REMARK  108  A    between atoms: _243  and  _246
REMARK  109  A    between atoms: _246  and  _247
REMARK  110  A    between atoms: _250  and  _252
REMARK  111  A    between atoms: _252  and  _253
REMARK  112  A    between atoms: _252  and  _255
REMARK  113  A    between atoms: _255  and  _256
REMARK  114  A    between atoms: _256  and  _257
REMARK  115  A    between atoms: _260  and  _262
REMARK  116  A    between atoms: _262  and  _263
REMARK  117  A    between atoms: _262  and  _265
REMARK  118  A    between atoms: _265  and  _266
REMARK  119  A    between atoms: _269  and  _271
REMARK  120  A    between atoms: _271  and  _272
REMARK  121  A    between atoms: _271  and  _274
REMARK  122  A    between atoms: _277  and  _279
REMARK  123  A    between atoms: _279  and  _280
REMARK  124  A    between atoms: _279  and  _282
REMARK  125  A    between atoms: _282  and  _283
REMARK  126  A    between atoms: _283  and  _284
REMARK  127  A    between atoms: _284  and  _285
REMARK  128  A    between atoms: _285  and  _286
REMARK  129  A    between atoms: _290  and  _292
REMARK  130  A    between atoms: _292  and  _293
REMARK  131  A    between atoms: _292  and  _295
REMARK  132  A    between atoms: _295  and  _296
REMARK  133  A    between atoms: _296  and  _297
REMARK  134  A    between atoms: _299  and  _301
REMARK  135  A    between atoms: _301  and  _302
REMARK  136  A    between atoms: _301  and  _304
REMARK  137  A    between atoms: _304  and  _305
REMARK  138  A    between atoms: _305  and  _306
REMARK  139  A    between atoms: _308  and  _310
REMARK  140  A    between atoms: _310  and  _311
REMARK  141  A    between atoms: _310  and  _313
REMARK  142  A    between atoms: _313  and  _314
REMARK  143  A    between atoms: _314  and  _315
REMARK  144  A    between atoms: _318  and  _320
REMARK  145  A    between atoms: _320  and  _321
REMARK  146  A    between atoms: _320  and  _323
REMARK  147  A    between atoms: _323  and  _324
REMARK  148  A    between atoms: _329  and  _330
REMARK  149  A    between atoms: _332  and  _334
REMARK  150  A    between atoms: _334  and  _335
REMARK  151  A    between atoms: _334  and  _337
REMARK  152  A    between atoms: _341  and  _342
REMARK  153  A    between atoms: _347  and  _349
REMARK  154  A    between atoms: _349  and  _350
REMARK  155  A    between atoms: _352  and  _354
REMARK  156  A    between atoms: _354  and  _355
REMARK  157  A    between atoms: _357  and  _359
REMARK  158  A    between atoms: _359  and  _360
REMARK  159  A    between atoms: _359  and  _362
REMARK  160  A    between atoms: _362  and  _363
REMARK  161  A    between atoms: _363  and  _364
REMARK  162  A    between atoms: _367  and  _369
REMARK  163  A    between atoms: _369  and  _370
REMARK  164  A    between atoms: _369  and  _372
REMARK  165  A    between atoms: _372  and  _373
REMARK  166  A    between atoms: _373  and  _374
REMARK  167  A    between atoms: _376  and  _378
REMARK  168  A    between atoms: _378  and  _379
REMARK  169  A    between atoms: _378  and  _381
REMARK  170  A    between atoms: _381  and  _382
REMARK  171  A    between atoms: _388  and  _390
REMARK  172  A    between atoms: _390  and  _391
REMARK  173  A    between atoms: _390  and  _393
REMARK  174  A    between atoms: _393  and  _394
REMARK  175  A    between atoms: _399  and  _400
REMARK  176  A    between atoms: _402  and  _404
REMARK  177  A    between atoms: _404  and  _405
REMARK  178  A    between atoms: _404  and  _407
REMARK  179  A    between atoms: _407  and  _408
REMARK  180  A    between atoms: _411  and  _413
REMARK  181  A    between atoms: _413  and  _414
REMARK  182  A    between atoms: _413  and  _416
REMARK  183  A    between atoms: _416  and  _417
REMARK  184  A    between atoms: _417  and  _418
REMARK  185  A    between atoms: _418  and  _419
REMARK  186  A    between atoms: _419  and  _420
REMARK  187  A    between atoms: _425  and  _426
REMARK  188  A    between atoms: _431  and  _433
REMARK  189  A    between atoms: _433  and  _434
REMARK  190  A    between atoms: _433  and  _436
REMARK  191  A    between atoms: _436  and  _437
REMARK  192  A    between atoms: _437  and  _438
REMARK  193  A    between atoms: _441  and  _443
REMARK  194  A    between atoms: _443  and  _444
REMARK  195  A    between atoms: _443  and  _446
REMARK  196  A    between atoms: _446  and  _447
REMARK  197  A    between atoms: _452  and  _454
REMARK  198  A    between atoms: _454  and  _455
REMARK  199  A    between atoms: _454  and  _457
REMARK  200  A    between atoms: _457  and  _458
REMARK  201  A    between atoms: _461  and  _463
REMARK  202  A    between atoms: _463  and  _464
REMARK  203  A    between atoms: _463  and  _466
REMARK  204  A    between atoms: _466  and  _467
REMARK  205  A    between atoms: _470  and  _472
REMARK  206  A    between atoms: _472  and  _473
REMARK  207  A    between atoms: _472  and  _475
REMARK  208  A    between atoms: _475  and  _476
REMARK  209  A    between atoms: _479  and  _481
REMARK  210  A    between atoms: _481  and  _482
REMARK  211  A    between atoms: _481  and  _484
REMARK  212  A    between atoms: _484  and  _485
REMARK  213  A    between atoms: _485  and  _486
REMARK  214  A    between atoms: _491  and  _493
REMARK  215  A    between atoms: _493  and  _494
REMARK  216  A    between atoms: _493  and  _496
REMARK  217  A    between atoms: _499  and  _501
REMARK  218  A    between atoms: _501  and  _502
REMARK  219  A    between atoms: _501  and  _504
REMARK  220  A    between atoms: _504  and  _505
REMARK  221  A    between atoms: _508  and  _510
REMARK  222  A    between atoms: _510  and  _511
REMARK  223  A    between atoms: _510  and  _513
REMARK  224  A    between atoms: _513  and  _514
REMARK  225  A    between atoms: _517  and  _519
REMARK  226  A    between atoms: _519  and  _520
REMARK  227  A    between atoms: _519  and  _522
REMARK  228  A    between atoms: _522  and  _523
REMARK  229  A    between atoms: _529  and  _531
REMARK  230  A    between atoms: _531  and  _532
REMARK  231  A    between atoms: _534  and  _536
REMARK  232  A    between atoms: _536  and  _537
REMARK  233  A    between atoms: _536  and  _539
REMARK  234  A    between atoms: _539  and  _540
REMARK  235  A    between atoms: _546  and  _548
REMARK  236  A    between atoms: _548  and  _549
REMARK  237  A    between atoms: _552  and  _554
REMARK  238  A    between atoms: _554  and  _555
REMARK  239  A    between atoms: _557  and  _559
REMARK  240  A    between atoms: _559  and  _560
REMARK  241  A    between atoms: _559  and  _562
REMARK  242  A    between atoms: _562  and  _563
REMARK  243  A    between atoms: _566  and  _568
REMARK  244  A    between atoms: _568  and  _569
REMARK  245  A    between atoms: _568  and  _571
REMARK  246  A    between atoms: _571  and  _572
REMARK  247  A    between atoms: _578  and  _580
REMARK  248  A    between atoms: _580  and  _581
REMARK  249  A    between atoms: _580  and  _583
REMARK  250  A    between atoms: _583  and  _584
REMARK  251  A    between atoms: _589  and  _590
REMARK                            x       y       z     vdW  Elec       q    Type
REMARK                         _______ _______ _______ _____ _____    ______ ____
ROOT
ATOM      1  O   HOH     1      16.941  10.186  -7.709  0.00  0.00    +0.000 OA
ENDROOT
TORSDOF 0
REMARK  Name = ../refined-set-2016/1xh5/1xh5_pocket.pdb
REMARK  251 active torsions:
REMARK  status: ('A' for Active; 'I' for Inactive)
REMARK    1  A    between atoms: _1  and  _3
REMARK    2  A    between atoms: _3  and  _4
REMARK    3  A    between atoms: _3  and  _6
REMARK    4  A    between atoms: _6  and  _7
REMARK    5  A    between atoms: _10  and  _12
REMARK    6  A    between atoms: _12  and  _13
REMARK    7  A    between atoms: _12  and  _15
REMARK    8  A    between atoms: _15  and  _16
REMARK    9  A    between atoms: _19  and  _21
REMARK   10  A    between atoms: _21  and  _22
REMARK   11  A    between atoms: _24  and  _26
REMARK   12  A    between atoms: _26  and  _27
REMARK   13  A    between atoms: _26  and  _29
REMARK   14  A    between atoms: _29  and  _30
REMARK   15  A    between atoms: _33  and  _35
REMARK   16  A    between atoms: _35  and  _36
REMARK   17  A    between atoms: _38  and  _40
REMARK   18  A    between atoms: _40  and  _41
REMARK   19  A    between atoms: _40  and  _43
REMARK   20  A    between atoms: _43  and  _44
REMARK   21  A    between atoms: _46  and  _48
REMARK   22  A    between atoms: _48  and  _49
REMARK   23  A    between atoms: _48  and  _51
REMARK   24  A    between atoms: _51  and  _52
REMARK   25  A    between atoms: _58  and  _60
REMARK   26  A    between atoms: _60  and  _61
REMARK   27  A    between atoms: _63  and  _65
REMARK   28  A    between atoms: _65  and  _66
REMARK   29  A    between atoms: _65  and  _68
REMARK   30  A    between atoms: _68  and  _69
REMARK   31  A    between atoms: _69  and  _70
REMARK   32  A    between atoms: _70  and  _71
REMARK   33  A    between atoms: _80  and  _82
REMARK   34  A    between atoms: _82  and  _83
REMARK   35  A    between atoms: _82  and  _85
REMARK   36  A    between atoms: _88  and  _90
REMARK   37  A    between atoms: _90  and  _91
REMARK   38  A    between atoms: _90  and  _93
REMARK   39  A    between atoms: _93  and  _94
REMARK   40  A    between atoms: _94  and  _95
REMARK   41  A    between atoms: _97  and  _99
REMARK   42  A    between atoms: _99  and  _100
REMARK   43  A    between atoms: _99  and  _102
REMARK   44  A    between atoms: _102  and  _103
REMARK   45  A    between atoms: _106  and  _108
REMARK   46  A    between atoms: _108  and  _109
REMARK   47  A    between atoms: _108  and  _111
REMARK   48  A    between atoms: _111  and  _112
REMARK   49  A    between atoms: _117  and  _118
REMARK   50  A    between atoms: _120  and  _122
REMARK   51  A    between atoms: _122  and  _123
REMARK   52  A    between atoms: _126  and  _128
REMARK   53  A    between atoms: _128  and  _129
REMARK   54  A    between atoms: _128  and  _131
REMARK   55  A    between atoms: _131  and  _132
REMARK   56  A    between atoms: _132  and  _133
REMARK   57  A    between atoms: _135  and  _137
REMARK   58  A    between atoms: _137  and  _138
REMARK   59  A    between atoms: _137  and  _140
REMARK   60  A    between atoms: _140  and  _141
REMARK   61  A    between atoms: _141  and  _142
REMARK   62  A    between atoms: _142  and  _143
REMARK   63  A    between atoms: _143  and  _144
REMARK   64  A    between atoms: _148  and  _150
REMARK   65  A    between atoms: _150  and  _151
REMARK   66  A    between atoms: _150  and  _153
REMARK   67  A    between atoms: _153  and  _154
REMARK   68  A    between atoms: _157  and  _159
REMARK   69  A    between atoms: _159  and  _160
REMARK   70  A    between atoms: _159  and  _162
REMARK   71  A    between atoms: _162  and  _163
REMARK   72  A    between atoms: _166  and  _168
REMARK   73  A    between atoms: _168  and  _169
REMARK   74  A    between atoms: _168  and  _171
REMARK   75  A    between atoms: _171  and  _172
REMARK   76  A    between atoms: _175  and  _177
REMARK   77  A    between atoms: _177  and  _178
REMARK   78  A    between atoms: _177  and  _180
REMARK   79  A    between atoms: _180  and  _181
REMARK   80  A    between atoms: _181  and  _182
REMARK   81  A    between atoms: _182  and  _183
REMARK   82  A    between atoms: _183  and  _184
REMARK   83  A    between atoms: _188  and  _190
REMARK   84  A    between atoms: _190  and  _191
REMARK   85  A    between atoms: _190  and  _193
REMARK   86  A    between atoms: _196  and  _198
REMARK   87  A    between atoms: _198  and  _199
REMARK   88  A    between atoms: _198  and  _201
REMARK   89  A    between atoms: _201  and  _202
REMARK   90  A    between atoms: _205  and  _207
REMARK   91  A    between atoms: _207  and  _208
REMARK   92  A    between atoms: _207  and  _210
REMARK   93  A    between atoms: _210  and  _211
REMARK   94  A    between atoms: _211  and  _212
REMARK   95  A    between atoms: _212  and  _213
REMARK   96  A    between atoms: _213  and  _214
REMARK   97  A    between atoms: _218  and  _220
REMARK   98  A    between atoms: _220  and  _221
REMARK   99  A    between atoms: _220  and  _223
REMARK  100  A    between atoms: _223  and  _224
REMARK  101  A    between atoms: _224  and  _225
REMARK  102  A    between atoms: _230  and  _232
REMARK  103  A    between atoms: _232  and  _233
REMARK  104  A    between atoms: _232  and  _235
REMARK  105  A    between atoms: _235  and  _236
REMARK  106  A    between atoms: _241  and  _243
REMARK  107  A    between atoms: _243  and  _244
REMARK  108  A    between atoms: _243  and  _246
REMARK  109  A    between atoms: _246  and  _247
REMARK  110  A    between atoms: _250  and  _252
REMARK  111  A    between atoms: _252  and  _253
REMARK  112  A    between atoms: _252  and  _255
REMARK  113  A    between atoms: _255  and  _256
REMARK  114  A    between atoms: _256  and  _257
REMARK  115  A    between atoms: _260  and  _262
REMARK  116  A    between atoms: _262  and  _263
REMARK  117  A    between atoms: _262  and  _265
REMARK  118  A    between atoms: _265  and  _266
REMARK  119  A    between atoms: _269  and  _271
REMARK  120  A    between atoms: _271  and  _272
REMARK  121  A    between atoms: _271  and  _274
REMARK  122  A    between atoms: _277  and  _279
REMARK  123  A    between atoms: _279  and  _280
REMARK  124  A    between atoms: _279  and  _282
REMARK  125  A    between atoms: _282  and  _283
REMARK  126  A    between atoms: _283  and  _284
REMARK  127  A    between atoms: _284  and  _285
REMARK  128  A    between atoms: _285  and  _286
REMARK  129  A    between atoms: _290  and  _292
REMARK  130  A    between atoms: _292  and  _293
REMARK  131  A    between atoms: _292  and  _295
REMARK  132  A    between atoms: _295  and  _296
REMARK  133  A    between atoms: _296  and  _297
REMARK  134  A    between atoms: _299  and  _301
REMARK  135  A    between atoms: _301  and  _302
REMARK  136  A    between atoms: _301  and  _304
REMARK  137  A    between atoms: _304  and  _305
REMARK  138  A    between atoms: _305  and  _306
REMARK  139  A    between atoms: _308  and  _310
REMARK  140  A    between atoms: _310  and  _311
REMARK  141  A    between atoms: _310  and  _313
REMARK  142  A    between atoms: _313  and  _314
REMARK  143  A    between atoms: _314  and  _315
REMARK  144  A    between atoms: _318  and  _320
REMARK  145  A    between atoms: _320  and  _321
REMARK  146  A    between atoms: _320  and  _323
REMARK  147  A    between atoms: _323  and  _324
REMARK  148  A    between atoms: _329  and  _330
REMARK  149  A    between atoms: _332  and  _334
REMARK  150  A    between atoms: _334  and  _335
REMARK  151  A    between atoms: _334  and  _337
REMARK  152  A    between atoms: _341  and  _342
REMARK  153  A    between atoms: _347  and  _349
REMARK  154  A    between atoms: _349  and  _350
REMARK  155  A    between atoms: _352  and  _354
REMARK  156  A    between atoms: _354  and  _355
REMARK  157  A    between atoms: _357  and  _359
REMARK  158  A    between atoms: _359  and  _360
REMARK  159  A    between atoms: _359  and  _362
REMARK  160  A    between atoms: _362  and  _363
REMARK  161  A    between atoms: _363  and  _364
REMARK  162  A    between atoms: _367  and  _369
REMARK  163  A    between atoms: _369  and  _370
REMARK  164  A    between atoms: _369  and  _372
REMARK  165  A    between atoms: _372  and  _373
REMARK  166  A    between atoms: _373  and  _374
REMARK  167  A    between atoms: _376  and  _378
REMARK  168  A    between atoms: _378  and  _379
REMARK  169  A    between atoms: _378  and  _381
REMARK  170  A    between atoms: _381  and  _382
REMARK  171  A    between atoms: _388  and  _390
REMARK  172  A    between atoms: _390  and  _391
REMARK  173  A    between atoms: _390  and  _393
REMARK  174  A    between atoms: _393  and  _394
REMARK  175  A    between atoms: _399  and  _400
REMARK  176  A    between atoms: _402  and  _404
REMARK  177  A    between atoms: _404  and  _405
REMARK  178  A    between atoms: _404  and  _407
REMARK  179  A    between atoms: _407  and  _408
REMARK  180  A    between atoms: _411  and  _413
REMARK  181  A    between atoms: _413  and  _414
REMARK  182  A    between atoms: _413  and  _416
REMARK  183  A    between atoms: _416  and  _417
REMARK  184  A    between atoms: _417  and  _418
REMARK  185  A    between atoms: _418  and  _419
REMARK  186  A    between atoms: _419  and  _420
REMARK  187  A    between atoms: _425  and  _426
REMARK  188  A    between atoms: _431  and  _433
REMARK  189  A    between atoms: _433  and  _434
REMARK  190  A    between atoms: _433  and  _436
REMARK  191  A    between atoms: _436  and  _437
REMARK  192  A    between atoms: _437  and  _438
REMARK  193  A    between atoms: _441  and  _443
REMARK  194  A    between atoms: _443  and  _444
REMARK  195  A    between atoms: _443  and  _446
REMARK  196  A    between atoms: _446  and  _447
REMARK  197  A    between atoms: _452  and  _454
REMARK  198  A    between atoms: _454  and  _455
REMARK  199  A    between atoms: _454  and  _457
REMARK  200  A    between atoms: _457  and  _458
REMARK  201  A    between atoms: _461  and  _463
REMARK  202  A    between atoms: _463  and  _464
REMARK  203  A    between atoms: _463  and  _466
REMARK  204  A    between atoms: _466  and  _467
REMARK  205  A    between atoms: _470  and  _472
REMARK  206  A    between atoms: _472  and  _473
REMARK  207  A    between atoms: _472  and  _475
REMARK  208  A    between atoms: _475  and  _476
REMARK  209  A    between atoms: _479  and  _481
REMARK  210  A    between atoms: _481  and  _482
REMARK  211  A    between atoms: _481  and  _484
REMARK  212  A    between atoms: _484  and  _485
REMARK  213  A    between atoms: _485  and  _486
REMARK  214  A    between atoms: _491  and  _493
REMARK  215  A    between atoms: _493  and  _494
REMARK  216  A    between atoms: _493  and  _496
REMARK  217  A    between atoms: _499  and  _501
REMARK  218  A    between atoms: _501  and  _502
REMARK  219  A    between atoms: _501  and  _504
REMARK  220  A    between atoms: _504  and  _505
REMARK  221  A    between atoms: _508  and  _510
REMARK  222  A    between atoms: _510  and  _511
REMARK  223  A    between atoms: _510  and  _513
REMARK  224  A    between atoms: _513  and  _514
REMARK  225  A    between atoms: _517  and  _519
REMARK  226  A    between atoms: _519  and  _520
REMARK  227  A    between atoms: _519  and  _522
REMARK  228  A    between atoms: _522  and  _523
REMARK  229  A    between atoms: _529  and  _531
REMARK  230  A    between atoms: _531  and  _532
REMARK  231  A    between atoms: _534  and  _536
REMARK  232  A    between atoms: _536  and  _537
REMARK  233  A    between atoms: _536  and  _539
REMARK  234  A    between atoms: _539  and  _540
REMARK  235  A    between atoms: _546  and  _548
REMARK  236  A    between atoms: _548  and  _549
REMARK  237  A    between atoms: _552  and  _554
REMARK  238  A    between atoms: _554  and  _555
REMARK  239  A    between atoms: _557  and  _559
REMARK  240  A    between atoms: _559  and  _560
REMARK  241  A    between atoms: _559  and  _562
REMARK  242  A    between atoms: _562  and  _563
REMARK  243  A    between atoms: _566  and  _568
REMARK  244  A    between atoms: _568  and  _569
REMARK  245  A    between atoms: _568  and  _571
REMARK  246  A    between atoms: _571  and  _572
REMARK  247  A    between atoms: _578  and  _580
REMARK  248  A    between atoms: _580  and  _581
REMARK  249  A    between atoms: _580  and  _583
REMARK  250  A    between atoms: _583  and  _584
REMARK  251  A    between atoms: _589  and  _590
REMARK                            x       y       z     vdW  Elec       q    Type
REMARK                         _______ _______ _______ _____ _____    ______ ____
ROOT
ATOM      1  O   HOH     1      25.995   4.779   0.915  0.00  0.00    +0.000 OA
ENDROOT
TORSDOF 0
REMARK  Name = ../refined-set-2016/1xh5/1xh5_pocket.pdb
REMARK  251 active torsions:
REMARK  status: ('A' for Active; 'I' for Inactive)
REMARK    1  A    between atoms: _1  and  _3
REMARK    2  A    between atoms: _3  and  _4
REMARK    3  A    between atoms: _3  and  _6
REMARK    4  A    between atoms: _6  and  _7
REMARK    5  A    between atoms: _10  and  _12
REMARK    6  A    between atoms: _12  and  _13
REMARK    7  A    between atoms: _12  and  _15
REMARK    8  A    between atoms: _15  and  _16
REMARK    9  A    between atoms: _19  and  _21
REMARK   10  A    between atoms: _21  and  _22
REMARK   11  A    between atoms: _24  and  _26
REMARK   12  A    between atoms: _26  and  _27
REMARK   13  A    between atoms: _26  and  _29
REMARK   14  A    between atoms: _29  and  _30
REMARK   15  A    between atoms: _33  and  _35
REMARK   16  A    between atoms: _35  and  _36
REMARK   17  A    between atoms: _38  and  _40
REMARK   18  A    between atoms: _40  and  _41
REMARK   19  A    between atoms: _40  and  _43
REMARK   20  A    between atoms: _43  and  _44
REMARK   21  A    between atoms: _46  and  _48
REMARK   22  A    between atoms: _48  and  _49
REMARK   23  A    between atoms: _48  and  _51
REMARK   24  A    between atoms: _51  and  _52
REMARK   25  A    between atoms: _58  and  _60
REMARK   26  A    between atoms: _60  and  _61
REMARK   27  A    between atoms: _63  and  _65
REMARK   28  A    between atoms: _65  and  _66
REMARK   29  A    between atoms: _65  and  _68
REMARK   30  A    between atoms: _68  and  _69
REMARK   31  A    between atoms: _69  and  _70
REMARK   32  A    between atoms: _70  and  _71
REMARK   33  A    between atoms: _80  and  _82
REMARK   34  A    between atoms: _82  and  _83
REMARK   35  A    between atoms: _82  and  _85
REMARK   36  A    between atoms: _88  and  _90
REMARK   37  A    between atoms: _90  and  _91
REMARK   38  A    between atoms: _90  and  _93
REMARK   39  A    between atoms: _93  and  _94
REMARK   40  A    between atoms: _94  and  _95
REMARK   41  A    between atoms: _97  and  _99
REMARK   42  A    between atoms: _99  and  _100
REMARK   43  A    between atoms: _99  and  _102
REMARK   44  A    between atoms: _102  and  _103
REMARK   45  A    between atoms: _106  and  _108
REMARK   46  A    between atoms: _108  and  _109
REMARK   47  A    between atoms: _108  and  _111
REMARK   48  A    between atoms: _111  and  _112
REMARK   49  A    between atoms: _117  and  _118
REMARK   50  A    between atoms: _120  and  _122
REMARK   51  A    between atoms: _122  and  _123
REMARK   52  A    between atoms: _126  and  _128
REMARK   53  A    between atoms: _128  and  _129
REMARK   54  A    between atoms: _128  and  _131
REMARK   55  A    between atoms: _131  and  _132
REMARK   56  A    between atoms: _132  and  _133
REMARK   57  A    between atoms: _135  and  _137
REMARK   58  A    between atoms: _137  and  _138
REMARK   59  A    between atoms: _137  and  _140
REMARK   60  A    between atoms: _140  and  _141
REMARK   61  A    between atoms: _141  and  _142
REMARK   62  A    between atoms: _142  and  _143
REMARK   63  A    between atoms: _143  and  _144
REMARK   64  A    between atoms: _148  and  _150
REMARK   65  A    between atoms: _150  and  _151
REMARK   66  A    between atoms: _150  and  _153
REMARK   67  A    between atoms: _153  and  _154
REMARK   68  A    between atoms: _157  and  _159
REMARK   69  A    between atoms: _159  and  _160
REMARK   70  A    between atoms: _159  and  _162
REMARK   71  A    between atoms: _162  and  _163
REMARK   72  A    between atoms: _166  and  _168
REMARK   73  A    between atoms: _168  and  _169
REMARK   74  A    between atoms: _168  and  _171
REMARK   75  A    between atoms: _171  and  _172
REMARK   76  A    between atoms: _175  and  _177
REMARK   77  A    between atoms: _177  and  _178
REMARK   78  A    between atoms: _177  and  _180
REMARK   79  A    between atoms: _180  and  _181
REMARK   80  A    between atoms: _181  and  _182
REMARK   81  A    between atoms: _182  and  _183
REMARK   82  A    between atoms: _183  and  _184
REMARK   83  A    between atoms: _188  and  _190
REMARK   84  A    between atoms: _190  and  _191
REMARK   85  A    between atoms: _190  and  _193
REMARK   86  A    between atoms: _196  and  _198
REMARK   87  A    between atoms: _198  and  _199
REMARK   88  A    between atoms: _198  and  _201
REMARK   89  A    between atoms: _201  and  _202
REMARK   90  A    between atoms: _205  and  _207
REMARK   91  A    between atoms: _207  and  _208
REMARK   92  A    between atoms: _207  and  _210
REMARK   93  A    between atoms: _210  and  _211
REMARK   94  A    between atoms: _211  and  _212
REMARK   95  A    between atoms: _212  and  _213
REMARK   96  A    between atoms: _213  and  _214
REMARK   97  A    between atoms: _218  and  _220
REMARK   98  A    between atoms: _220  and  _221
REMARK   99  A    between atoms: _220  and  _223
REMARK  100  A    between atoms: _223  and  _224
REMARK  101  A    between atoms: _224  and  _225
REMARK  102  A    between atoms: _230  and  _232
REMARK  103  A    between atoms: _232  and  _233
REMARK  104  A    between atoms: _232  and  _235
REMARK  105  A    between atoms: _235  and  _236
REMARK  106  A    between atoms: _241  and  _243
REMARK  107  A    between atoms: _243  and  _244
REMARK  108  A    between atoms: _243  and  _246
REMARK  109  A    between atoms: _246  and  _247
REMARK  110  A    between atoms: _250  and  _252
REMARK  111  A    between atoms: _252  and  _253
REMARK  112  A    between atoms: _252  and  _255
REMARK  113  A    between atoms: _255  and  _256
REMARK  114  A    between atoms: _256  and  _257
REMARK  115  A    between atoms: _260  and  _262
REMARK  116  A    between atoms: _262  and  _263
REMARK  117  A    between atoms: _262  and  _265
REMARK  118  A    between atoms: _265  and  _266
REMARK  119  A    between atoms: _269  and  _271
REMARK  120  A    between atoms: _271  and  _272
REMARK  121  A    between atoms: _271  and  _274
REMARK  122  A    between atoms: _277  and  _279
REMARK  123  A    between atoms: _279  and  _280
REMARK  124  A    between atoms: _279  and  _282
REMARK  125  A    between atoms: _282  and  _283
REMARK  126  A    between atoms: _283  and  _284
REMARK  127  A    between atoms: _284  and  _285
REMARK  128  A    between atoms: _285  and  _286
REMARK  129  A    between atoms: _290  and  _292
REMARK  130  A    between atoms: _292  and  _293
REMARK  131  A    between atoms: _292  and  _295
REMARK  132  A    between atoms: _295  and  _296
REMARK  133  A    between atoms: _296  and  _297
REMARK  134  A    between atoms: _299  and  _301
REMARK  135  A    between atoms: _301  and  _302
REMARK  136  A    between atoms: _301  and  _304
REMARK  137  A    between atoms: _304  and  _305
REMARK  138  A    between atoms: _305  and  _306
REMARK  139  A    between atoms: _308  and  _310
REMARK  140  A    between atoms: _310  and  _311
REMARK  141  A    between atoms: _310  and  _313
REMARK  142  A    between atoms: _313  and  _314
REMARK  143  A    between atoms: _314  and  _315
REMARK  144  A    between atoms: _318  and  _320
REMARK  145  A    between atoms: _320  and  _321
REMARK  146  A    between atoms: _320  and  _323
REMARK  147  A    between atoms: _323  and  _324
REMARK  148  A    between atoms: _329  and  _330
REMARK  149  A    between atoms: _332  and  _334
REMARK  150  A    between atoms: _334  and  _335
REMARK  151  A    between atoms: _334  and  _337
REMARK  152  A    between atoms: _341  and  _342
REMARK  153  A    between atoms: _347  and  _349
REMARK  154  A    between atoms: _349  and  _350
REMARK  155  A    between atoms: _352  and  _354
REMARK  156  A    between atoms: _354  and  _355
REMARK  157  A    between atoms: _357  and  _359
REMARK  158  A    between atoms: _359  and  _360
REMARK  159  A    between atoms: _359  and  _362
REMARK  160  A    between atoms: _362  and  _363
REMARK  161  A    between atoms: _363  and  _364
REMARK  162  A    between atoms: _367  and  _369
REMARK  163  A    between atoms: _369  and  _370
REMARK  164  A    between atoms: _369  and  _372
REMARK  165  A    between atoms: _372  and  _373
REMARK  166  A    between atoms: _373  and  _374
REMARK  167  A    between atoms: _376  and  _378
REMARK  168  A    between atoms: _378  and  _379
REMARK  169  A    between atoms: _378  and  _381
REMARK  170  A    between atoms: _381  and  _382
REMARK  171  A    between atoms: _388  and  _390
REMARK  172  A    between atoms: _390  and  _391
REMARK  173  A    between atoms: _390  and  _393
REMARK  174  A    between atoms: _393  and  _394
REMARK  175  A    between atoms: _399  and  _400
REMARK  176  A    between atoms: _402  and  _404
REMARK  177  A    between atoms: _404  and  _405
REMARK  178  A    between atoms: _404  and  _407
REMARK  179  A    between atoms: _407  and  _408
REMARK  180  A    between atoms: _411  and  _413
REMARK  181  A    between atoms: _413  and  _414
REMARK  182  A    between atoms: _413  and  _416
REMARK  183  A    between atoms: _416  and  _417
REMARK  184  A    between atoms: _417  and  _418
REMARK  185  A    between atoms: _418  and  _419
REMARK  186  A    between atoms: _419  and  _420
REMARK  187  A    between atoms: _425  and  _426
REMARK  188  A    between atoms: _431  and  _433
REMARK  189  A    between atoms: _433  and  _434
REMARK  190  A    between atoms: _433  and  _436
REMARK  191  A    between atoms: _436  and  _437
REMARK  192  A    between atoms: _437  and  _438
REMARK  193  A    between atoms: _441  and  _443
REMARK  194  A    between atoms: _443  and  _444
REMARK  195  A    between atoms: _443  and  _446
REMARK  196  A    between atoms: _446  and  _447
REMARK  197  A    between atoms: _452  and  _454
REMARK  198  A    between atoms: _454  and  _455
REMARK  199  A    between atoms: _454  and  _457
REMARK  200  A    between atoms: _457  and  _458
REMARK  201  A    between atoms: _461  and  _463
REMARK  202  A    between atoms: _463  and  _464
REMARK  203  A    between atoms: _463  and  _466
REMARK  204  A    between atoms: _466  and  _467
REMARK  205  A    between atoms: _470  and  _472
REMARK  206  A    between atoms: _472  and  _473
REMARK  207  A    between atoms: _472  and  _475
REMARK  208  A    between atoms: _475  and  _476
REMARK  209  A    between atoms: _479  and  _481
REMARK  210  A    between atoms: _481  and  _482
REMARK  211  A    between atoms: _481  and  _484
REMARK  212  A    between atoms: _484  and  _485
REMARK  213  A    between atoms: _485  and  _486
REMARK  214  A    between atoms: _491  and  _493
REMARK  215  A    between atoms: _493  and  _494
REMARK  216  A    between atoms: _493  and  _496
REMARK  217  A    between atoms: _499  and  _501
REMARK  218  A    between atoms: _501  and  _502
REMARK  219  A    between atoms: _501  and  _504
REMARK  220  A    between atoms: _504  and  _505
REMARK  221  A    between atoms: _508  and  _510
REMARK  222  A    between atoms: _510  and  _511
REMARK  223  A    between atoms: _510  and  _513
REMARK  224  A    between atoms: _513  and  _514
REMARK  225  A    between atoms: _517  and  _519
REMARK  226  A    between atoms: _519  and  _520
REMARK  227  A    between atoms: _519  and  _522
REMARK  228  A    between atoms: _522  and  _523
REMARK  229  A    between atoms: _529  and  _531
REMARK  230  A    between atoms: _531  and  _532
REMARK  231  A    between atoms: _534  and  _536
REMARK  232  A    between atoms: _536  and  _537
REMARK  233  A    between atoms: _536  and  _539
REMARK  234  A    between atoms: _539  and  _540
REMARK  235  A    between atoms: _546  and  _548
REMARK  236  A    between atoms: _548  and  _549
REMARK  237  A    between atoms: _552  and  _554
REMARK  238  A    between atoms: _554  and  _555
REMARK  239  A    between atoms: _557  and  _559
REMARK  240  A    between atoms: _559  and  _560
REMARK  241  A    between atoms: _559  and  _562
REMARK  242  A    between atoms: _562  and  _563
REMARK  243  A    between atoms: _566  and  _568
REMARK  244  A    between atoms: _568  and  _569
REMARK  245  A    between atoms: _568  and  _571
REMARK  246  A    between atoms: _571  and  _572
REMARK  247  A    between atoms: _578  and  _580
REMARK  248  A    between atoms: _580  and  _581
REMARK  249  A    between atoms: _580  and  _583
REMARK  250  A    between atoms: _583  and  _584
REMARK  251  A    between atoms: _589  and  _590
REMARK                            x       y       z     vdW  Elec       q    Type
REMARK                         _______ _______ _______ _____ _____    ______ ____
ROOT
ATOM      1  O   HOH     1      17.672  12.233   6.794  0.00  0.00    +0.000 OA
ENDROOT
TORSDOF 0
REMARK  Name = ../refined-set-2016/1xh5/1xh5_pocket.pdb
REMARK  251 active torsions:
REMARK  status: ('A' for Active; 'I' for Inactive)
REMARK    1  A    between atoms: _1  and  _3
REMARK    2  A    between atoms: _3  and  _4
REMARK    3  A    between atoms: _3  and  _6
REMARK    4  A    between atoms: _6  and  _7
REMARK    5  A    between atoms: _10  and  _12
REMARK    6  A    between atoms: _12  and  _13
REMARK    7  A    between atoms: _12  and  _15
REMARK    8  A    between atoms: _15  and  _16
REMARK    9  A    between atoms: _19  and  _21
REMARK   10  A    between atoms: _21  and  _22
REMARK   11  A    between atoms: _24  and  _26
REMARK   12  A    between atoms: _26  and  _27
REMARK   13  A    between atoms: _26  and  _29
REMARK   14  A    between atoms: _29  and  _30
REMARK   15  A    between atoms: _33  and  _35
REMARK   16  A    between atoms: _35  and  _36
REMARK   17  A    between atoms: _38  and  _40
REMARK   18  A    between atoms: _40  and  _41
REMARK   19  A    between atoms: _40  and  _43
REMARK   20  A    between atoms: _43  and  _44
REMARK   21  A    between atoms: _46  and  _48
REMARK   22  A    between atoms: _48  and  _49
REMARK   23  A    between atoms: _48  and  _51
REMARK   24  A    between atoms: _51  and  _52
REMARK   25  A    between atoms: _58  and  _60
REMARK   26  A    between atoms: _60  and  _61
REMARK   27  A    between atoms: _63  and  _65
REMARK   28  A    between atoms: _65  and  _66
REMARK   29  A    between atoms: _65  and  _68
REMARK   30  A    between atoms: _68  and  _69
REMARK   31  A    between atoms: _69  and  _70
REMARK   32  A    between atoms: _70  and  _71
REMARK   33  A    between atoms: _80  and  _82
REMARK   34  A    between atoms: _82  and  _83
REMARK   35  A    between atoms: _82  and  _85
REMARK   36  A    between atoms: _88  and  _90
REMARK   37  A    between atoms: _90  and  _91
REMARK   38  A    between atoms: _90  and  _93
REMARK   39  A    between atoms: _93  and  _94
REMARK   40  A    between atoms: _94  and  _95
REMARK   41  A    between atoms: _97  and  _99
REMARK   42  A    between atoms: _99  and  _100
REMARK   43  A    between atoms: _99  and  _102
REMARK   44  A    between atoms: _102  and  _103
REMARK   45  A    between atoms: _106  and  _108
REMARK   46  A    between atoms: _108  and  _109
REMARK   47  A    between atoms: _108  and  _111
REMARK   48  A    between atoms: _111  and  _112
REMARK   49  A    between atoms: _117  and  _118
REMARK   50  A    between atoms: _120  and  _122
REMARK   51  A    between atoms: _122  and  _123
REMARK   52  A    between atoms: _126  and  _128
REMARK   53  A    between atoms: _128  and  _129
REMARK   54  A    between atoms: _128  and  _131
REMARK   55  A    between atoms: _131  and  _132
REMARK   56  A    between atoms: _132  and  _133
REMARK   57  A    between atoms: _135  and  _137
REMARK   58  A    between atoms: _137  and  _138
REMARK   59  A    between atoms: _137  and  _140
REMARK   60  A    between atoms: _140  and  _141
REMARK   61  A    between atoms: _141  and  _142
REMARK   62  A    between atoms: _142  and  _143
REMARK   63  A    between atoms: _143  and  _144
REMARK   64  A    between atoms: _148  and  _150
REMARK   65  A    between atoms: _150  and  _151
REMARK   66  A    between atoms: _150  and  _153
REMARK   67  A    between atoms: _153  and  _154
REMARK   68  A    between atoms: _157  and  _159
REMARK   69  A    between atoms: _159  and  _160
REMARK   70  A    between atoms: _159  and  _162
REMARK   71  A    between atoms: _162  and  _163
REMARK   72  A    between atoms: _166  and  _168
REMARK   73  A    between atoms: _168  and  _169
REMARK   74  A    between atoms: _168  and  _171
REMARK   75  A    between atoms: _171  and  _172
REMARK   76  A    between atoms: _175  and  _177
REMARK   77  A    between atoms: _177  and  _178
REMARK   78  A    between atoms: _177  and  _180
REMARK   79  A    between atoms: _180  and  _181
REMARK   80  A    between atoms: _181  and  _182
REMARK   81  A    between atoms: _182  and  _183
REMARK   82  A    between atoms: _183  and  _184
REMARK   83  A    between atoms: _188  and  _190
REMARK   84  A    between atoms: _190  and  _191
REMARK   85  A    between atoms: _190  and  _193
REMARK   86  A    between atoms: _196  and  _198
REMARK   87  A    between atoms: _198  and  _199
REMARK   88  A    between atoms: _198  and  _201
REMARK   89  A    between atoms: _201  and  _202
REMARK   90  A    between atoms: _205  and  _207
REMARK   91  A    between atoms: _207  and  _208
REMARK   92  A    between atoms: _207  and  _210
REMARK   93  A    between atoms: _210  and  _211
REMARK   94  A    between atoms: _211  and  _212
REMARK   95  A    between atoms: _212  and  _213
REMARK   96  A    between atoms: _213  and  _214
REMARK   97  A    between atoms: _218  and  _220
REMARK   98  A    between atoms: _220  and  _221
REMARK   99  A    between atoms: _220  and  _223
REMARK  100  A    between atoms: _223  and  _224
REMARK  101  A    between atoms: _224  and  _225
REMARK  102  A    between atoms: _230  and  _232
REMARK  103  A    between atoms: _232  and  _233
REMARK  104  A    between atoms: _232  and  _235
REMARK  105  A    between atoms: _235  and  _236
REMARK  106  A    between atoms: _241  and  _243
REMARK  107  A    between atoms: _243  and  _244
REMARK  108  A    between atoms: _243  and  _246
REMARK  109  A    between atoms: _246  and  _247
REMARK  110  A    between atoms: _250  and  _252
REMARK  111  A    between atoms: _252  and  _253
REMARK  112  A    between atoms: _252  and  _255
REMARK  113  A    between atoms: _255  and  _256
REMARK  114  A    between atoms: _256  and  _257
REMARK  115  A    between atoms: _260  and  _262
REMARK  116  A    between atoms: _262  and  _263
REMARK  117  A    between atoms: _262  and  _265
REMARK  118  A    between atoms: _265  and  _266
REMARK  119  A    between atoms: _269  and  _271
REMARK  120  A    between atoms: _271  and  _272
REMARK  121  A    between atoms: _271  and  _274
REMARK  122  A    between atoms: _277  and  _279
REMARK  123  A    between atoms: _279  and  _280
REMARK  124  A    between atoms: _279  and  _282
REMARK  125  A    between atoms: _282  and  _283
REMARK  126  A    between atoms: _283  and  _284
REMARK  127  A    between atoms: _284  and  _285
REMARK  128  A    between atoms: _285  and  _286
REMARK  129  A    between atoms: _290  and  _292
REMARK  130  A    between atoms: _292  and  _293
REMARK  131  A    between atoms: _292  and  _295
REMARK  132  A    between atoms: _295  and  _296
REMARK  133  A    between atoms: _296  and  _297
REMARK  134  A    between atoms: _299  and  _301
REMARK  135  A    between atoms: _301  and  _302
REMARK  136  A    between atoms: _301  and  _304
REMARK  137  A    between atoms: _304  and  _305
REMARK  138  A    between atoms: _305  and  _306
REMARK  139  A    between atoms: _308  and  _310
REMARK  140  A    between atoms: _310  and  _311
REMARK  141  A    between atoms: _310  and  _313
REMARK  142  A    between atoms: _313  and  _314
REMARK  143  A    between atoms: _314  and  _315
REMARK  144  A    between atoms: _318  and  _320
REMARK  145  A    between atoms: _320  and  _321
REMARK  146  A    between atoms: _320  and  _323
REMARK  147  A    between atoms: _323  and  _324
REMARK  148  A    between atoms: _329  and  _330
REMARK  149  A    between atoms: _332  and  _334
REMARK  150  A    between atoms: _334  and  _335
REMARK  151  A    between atoms: _334  and  _337
REMARK  152  A    between atoms: _341  and  _342
REMARK  153  A    between atoms: _347  and  _349
REMARK  154  A    between atoms: _349  and  _350
REMARK  155  A    between atoms: _352  and  _354
REMARK  156  A    between atoms: _354  and  _355
REMARK  157  A    between atoms: _357  and  _359
REMARK  158  A    between atoms: _359  and  _360
REMARK  159  A    between atoms: _359  and  _362
REMARK  160  A    between atoms: _362  and  _363
REMARK  161  A    between atoms: _363  and  _364
REMARK  162  A    between atoms: _367  and  _369
REMARK  163  A    between atoms: _369  and  _370
REMARK  164  A    between atoms: _369  and  _372
REMARK  165  A    between atoms: _372  and  _373
REMARK  166  A    between atoms: _373  and  _374
REMARK  167  A    between atoms: _376  and  _378
REMARK  168  A    between atoms: _378  and  _379
REMARK  169  A    between atoms: _378  and  _381
REMARK  170  A    between atoms: _381  and  _382
REMARK  171  A    between atoms: _388  and  _390
REMARK  172  A    between atoms: _390  and  _391
REMARK  173  A    between atoms: _390  and  _393
REMARK  174  A    between atoms: _393  and  _394
REMARK  175  A    between atoms: _399  and  _400
REMARK  176  A    between atoms: _402  and  _404
REMARK  177  A    between atoms: _404  and  _405
REMARK  178  A    between atoms: _404  and  _407
REMARK  179  A    between atoms: _407  and  _408
REMARK  180  A    between atoms: _411  and  _413
REMARK  181  A    between atoms: _413  and  _414
REMARK  182  A    between atoms: _413  and  _416
REMARK  183  A    between atoms: _416  and  _417
REMARK  184  A    between atoms: _417  and  _418
REMARK  185  A    between atoms: _418  and  _419
REMARK  186  A    between atoms: _419  and  _420
REMARK  187  A    between atoms: _425  and  _426
REMARK  188  A    between atoms: _431  and  _433
REMARK  189  A    between atoms: _433  and  _434
REMARK  190  A    between atoms: _433  and  _436
REMARK  191  A    between atoms: _436  and  _437
REMARK  192  A    between atoms: _437  and  _438
REMARK  193  A    between atoms: _441  and  _443
REMARK  194  A    between atoms: _443  and  _444
REMARK  195  A    between atoms: _443  and  _446
REMARK  196  A    between atoms: _446  and  _447
REMARK  197  A    between atoms: _452  and  _454
REMARK  198  A    between atoms: _454  and  _455
REMARK  199  A    between atoms: _454  and  _457
REMARK  200  A    between atoms: _457  and  _458
REMARK  201  A    between atoms: _461  and  _463
REMARK  202  A    between atoms: _463  and  _464
REMARK  203  A    between atoms: _463  and  _466
REMARK  204  A    between atoms: _466  and  _467
REMARK  205  A    between atoms: _470  and  _472
REMARK  206  A    between atoms: _472  and  _473
REMARK  207  A    between atoms: _472  and  _475
REMARK  208  A    between atoms: _475  and  _476
REMARK  209  A    between atoms: _479  and  _481
REMARK  210  A    between atoms: _481  and  _482
REMARK  211  A    between atoms: _481  and  _484
REMARK  212  A    between atoms: _484  and  _485
REMARK  213  A    between atoms: _485  and  _486
REMARK  214  A    between atoms: _491  and  _493
REMARK  215  A    between atoms: _493  and  _494
REMARK  216  A    between atoms: _493  and  _496
REMARK  217  A    between atoms: _499  and  _501
REMARK  218  A    between atoms: _501  and  _502
REMARK  219  A    between atoms: _501  and  _504
REMARK  220  A    between atoms: _504  and  _505
REMARK  221  A    between atoms: _508  and  _510
REMARK  222  A    between atoms: _510  and  _511
REMARK  223  A    between atoms: _510  and  _513
REMARK  224  A    between atoms: _513  and  _514
REMARK  225  A    between atoms: _517  and  _519
REMARK  226  A    between atoms: _519  and  _520
REMARK  227  A    between atoms: _519  and  _522
REMARK  228  A    between atoms: _522  and  _523
REMARK  229  A    between atoms: _529  and  _531
REMARK  230  A    between atoms: _531  and  _532
REMARK  231  A    between atoms: _534  and  _536
REMARK  232  A    between atoms: _536  and  _537
REMARK  233  A    between atoms: _536  and  _539
REMARK  234  A    between atoms: _539  and  _540
REMARK  235  A    between atoms: _546  and  _548
REMARK  236  A    between atoms: _548  and  _549
REMARK  237  A    between atoms: _552  and  _554
REMARK  238  A    between atoms: _554  and  _555
REMARK  239  A    between atoms: _557  and  _559
REMARK  240  A    between atoms: _559  and  _560
REMARK  241  A    between atoms: _559  and  _562
REMARK  242  A    between atoms: _562  and  _563
REMARK  243  A    between atoms: _566  and  _568
REMARK  244  A    between atoms: _568  and  _569
REMARK  245  A    between atoms: _568  and  _571
REMARK  246  A    between atoms: _571  and  _572
REMARK  247  A    between atoms: _578  and  _580
REMARK  248  A    between atoms: _580  and  _581
REMARK  249  A    between atoms: _580  and  _583
REMARK  250  A    between atoms: _583  and  _584
REMARK  251  A    between atoms: _589  and  _590
REMARK                            x       y       z     vdW  Elec       q    Type
REMARK                         _______ _______ _______ _____ _____    ______ ____
ROOT
ATOM      1  O   HOH     1      16.730  20.462   3.696  0.00  0.00    +0.000 OA
ENDROOT
TORSDOF 0
REMARK  Name = ../refined-set-2016/1xh5/1xh5_pocket.pdb
REMARK  251 active torsions:
REMARK  status: ('A' for Active; 'I' for Inactive)
REMARK    1  A    between atoms: _1  and  _3
REMARK    2  A    between atoms: _3  and  _4
REMARK    3  A    between atoms: _3  and  _6
REMARK    4  A    between atoms: _6  and  _7
REMARK    5  A    between atoms: _10  and  _12
REMARK    6  A    between atoms: _12  and  _13
REMARK    7  A    between atoms: _12  and  _15
REMARK    8  A    between atoms: _15  and  _16
REMARK    9  A    between atoms: _19  and  _21
REMARK   10  A    between atoms: _21  and  _22
REMARK   11  A    between atoms: _24  and  _26
REMARK   12  A    between atoms: _26  and  _27
REMARK   13  A    between atoms: _26  and  _29
REMARK   14  A    between atoms: _29  and  _30
REMARK   15  A    between atoms: _33  and  _35
REMARK   16  A    between atoms: _35  and  _36
REMARK   17  A    between atoms: _38  and  _40
REMARK   18  A    between atoms: _40  and  _41
REMARK   19  A    between atoms: _40  and  _43
REMARK   20  A    between atoms: _43  and  _44
REMARK   21  A    between atoms: _46  and  _48
REMARK   22  A    between atoms: _48  and  _49
REMARK   23  A    between atoms: _48  and  _51
REMARK   24  A    between atoms: _51  and  _52
REMARK   25  A    between atoms: _58  and  _60
REMARK   26  A    between atoms: _60  and  _61
REMARK   27  A    between atoms: _63  and  _65
REMARK   28  A    between atoms: _65  and  _66
REMARK   29  A    between atoms: _65  and  _68
REMARK   30  A    between atoms: _68  and  _69
REMARK   31  A    between atoms: _69  and  _70
REMARK   32  A    between atoms: _70  and  _71
REMARK   33  A    between atoms: _80  and  _82
REMARK   34  A    between atoms: _82  and  _83
REMARK   35  A    between atoms: _82  and  _85
REMARK   36  A    between atoms: _88  and  _90
REMARK   37  A    between atoms: _90  and  _91
REMARK   38  A    between atoms: _90  and  _93
REMARK   39  A    between atoms: _93  and  _94
REMARK   40  A    between atoms: _94  and  _95
REMARK   41  A    between atoms: _97  and  _99
REMARK   42  A    between atoms: _99  and  _100
REMARK   43  A    between atoms: _99  and  _102
REMARK   44  A    between atoms: _102  and  _103
REMARK   45  A    between atoms: _106  and  _108
REMARK   46  A    between atoms: _108  and  _109
REMARK   47  A    between atoms: _108  and  _111
REMARK   48  A    between atoms: _111  and  _112
REMARK   49  A    between atoms: _117  and  _118
REMARK   50  A    between atoms: _120  and  _122
REMARK   51  A    between atoms: _122  and  _123
REMARK   52  A    between atoms: _126  and  _128
REMARK   53  A    between atoms: _128  and  _129
REMARK   54  A    between atoms: _128  and  _131
REMARK   55  A    between atoms: _131  and  _132
REMARK   56  A    between atoms: _132  and  _133
REMARK   57  A    between atoms: _135  and  _137
REMARK   58  A    between atoms: _137  and  _138
REMARK   59  A    between atoms: _137  and  _140
REMARK   60  A    between atoms: _140  and  _141
REMARK   61  A    between atoms: _141  and  _142
REMARK   62  A    between atoms: _142  and  _143
REMARK   63  A    between atoms: _143  and  _144
REMARK   64  A    between atoms: _148  and  _150
REMARK   65  A    between atoms: _150  and  _151
REMARK   66  A    between atoms: _150  and  _153
REMARK   67  A    between atoms: _153  and  _154
REMARK   68  A    between atoms: _157  and  _159
REMARK   69  A    between atoms: _159  and  _160
REMARK   70  A    between atoms: _159  and  _162
REMARK   71  A    between atoms: _162  and  _163
REMARK   72  A    between atoms: _166  and  _168
REMARK   73  A    between atoms: _168  and  _169
REMARK   74  A    between atoms: _168  and  _171
REMARK   75  A    between atoms: _171  and  _172
REMARK   76  A    between atoms: _175  and  _177
REMARK   77  A    between atoms: _177  and  _178
REMARK   78  A    between atoms: _177  and  _180
REMARK   79  A    between atoms: _180  and  _181
REMARK   80  A    between atoms: _181  and  _182
REMARK   81  A    between atoms: _182  and  _183
REMARK   82  A    between atoms: _183  and  _184
REMARK   83  A    between atoms: _188  and  _190
REMARK   84  A    between atoms: _190  and  _191
REMARK   85  A    between atoms: _190  and  _193
REMARK   86  A    between atoms: _196  and  _198
REMARK   87  A    between atoms: _198  and  _199
REMARK   88  A    between atoms: _198  and  _201
REMARK   89  A    between atoms: _201  and  _202
REMARK   90  A    between atoms: _205  and  _207
REMARK   91  A    between atoms: _207  and  _208
REMARK   92  A    between atoms: _207  and  _210
REMARK   93  A    between atoms: _210  and  _211
REMARK   94  A    between atoms: _211  and  _212
REMARK   95  A    between atoms: _212  and  _213
REMARK   96  A    between atoms: _213  and  _214
REMARK   97  A    between atoms: _218  and  _220
REMARK   98  A    between atoms: _220  and  _221
REMARK   99  A    between atoms: _220  and  _223
REMARK  100  A    between atoms: _223  and  _224
REMARK  101  A    between atoms: _224  and  _225
REMARK  102  A    between atoms: _230  and  _232
REMARK  103  A    between atoms: _232  and  _233
REMARK  104  A    between atoms: _232  and  _235
REMARK  105  A    between atoms: _235  and  _236
REMARK  106  A    between atoms: _241  and  _243
REMARK  107  A    between atoms: _243  and  _244
REMARK  108  A    between atoms: _243  and  _246
REMARK  109  A    between atoms: _246  and  _247
REMARK  110  A    between atoms: _250  and  _252
REMARK  111  A    between atoms: _252  and  _253
REMARK  112  A    between atoms: _252  and  _255
REMARK  113  A    between atoms: _255  and  _256
REMARK  114  A    between atoms: _256  and  _257
REMARK  115  A    between atoms: _260  and  _262
REMARK  116  A    between atoms: _262  and  _263
REMARK  117  A    between atoms: _262  and  _265
REMARK  118  A    between atoms: _265  and  _266
REMARK  119  A    between atoms: _269  and  _271
REMARK  120  A    between atoms: _271  and  _272
REMARK  121  A    between atoms: _271  and  _274
REMARK  122  A    between atoms: _277  and  _279
REMARK  123  A    between atoms: _279  and  _280
REMARK  124  A    between atoms: _279  and  _282
REMARK  125  A    between atoms: _282  and  _283
REMARK  126  A    between atoms: _283  and  _284
REMARK  127  A    between atoms: _284  and  _285
REMARK  128  A    between atoms: _285  and  _286
REMARK  129  A    between atoms: _290  and  _292
REMARK  130  A    between atoms: _292  and  _293
REMARK  131  A    between atoms: _292  and  _295
REMARK  132  A    between atoms: _295  and  _296
REMARK  133  A    between atoms: _296  and  _297
REMARK  134  A    between atoms: _299  and  _301
REMARK  135  A    between atoms: _301  and  _302
REMARK  136  A    between atoms: _301  and  _304
REMARK  137  A    between atoms: _304  and  _305
REMARK  138  A    between atoms: _305  and  _306
REMARK  139  A    between atoms: _308  and  _310
REMARK  140  A    between atoms: _310  and  _311
REMARK  141  A    between atoms: _310  and  _313
REMARK  142  A    between atoms: _313  and  _314
REMARK  143  A    between atoms: _314  and  _315
REMARK  144  A    between atoms: _318  and  _320
REMARK  145  A    between atoms: _320  and  _321
REMARK  146  A    between atoms: _320  and  _323
REMARK  147  A    between atoms: _323  and  _324
REMARK  148  A    between atoms: _329  and  _330
REMARK  149  A    between atoms: _332  and  _334
REMARK  150  A    between atoms: _334  and  _335
REMARK  151  A    between atoms: _334  and  _337
REMARK  152  A    between atoms: _341  and  _342
REMARK  153  A    between atoms: _347  and  _349
REMARK  154  A    between atoms: _349  and  _350
REMARK  155  A    between atoms: _352  and  _354
REMARK  156  A    between atoms: _354  and  _355
REMARK  157  A    between atoms: _357  and  _359
REMARK  158  A    between atoms: _359  and  _360
REMARK  159  A    between atoms: _359  and  _362
REMARK  160  A    between atoms: _362  and  _363
REMARK  161  A    between atoms: _363  and  _364
REMARK  162  A    between atoms: _367  and  _369
REMARK  163  A    between atoms: _369  and  _370
REMARK  164  A    between atoms: _369  and  _372
REMARK  165  A    between atoms: _372  and  _373
REMARK  166  A    between atoms: _373  and  _374
REMARK  167  A    between atoms: _376  and  _378
REMARK  168  A    between atoms: _378  and  _379
REMARK  169  A    between atoms: _378  and  _381
REMARK  170  A    between atoms: _381  and  _382
REMARK  171  A    between atoms: _388  and  _390
REMARK  172  A    between atoms: _390  and  _391
REMARK  173  A    between atoms: _390  and  _393
REMARK  174  A    between atoms: _393  and  _394
REMARK  175  A    between atoms: _399  and  _400
REMARK  176  A    between atoms: _402  and  _404
REMARK  177  A    between atoms: _404  and  _405
REMARK  178  A    between atoms: _404  and  _407
REMARK  179  A    between atoms: _407  and  _408
REMARK  180  A    between atoms: _411  and  _413
REMARK  181  A    between atoms: _413  and  _414
REMARK  182  A    between atoms: _413  and  _416
REMARK  183  A    between atoms: _416  and  _417
REMARK  184  A    between atoms: _417  and  _418
REMARK  185  A    between atoms: _418  and  _419
REMARK  186  A    between atoms: _419  and  _420
REMARK  187  A    between atoms: _425  and  _426
REMARK  188  A    between atoms: _431  and  _433
REMARK  189  A    between atoms: _433  and  _434
REMARK  190  A    between atoms: _433  and  _436
REMARK  191  A    between atoms: _436  and  _437
REMARK  192  A    between atoms: _437  and  _438
REMARK  193  A    between atoms: _441  and  _443
REMARK  194  A    between atoms: _443  and  _444
REMARK  195  A    between atoms: _443  and  _446
REMARK  196  A    between atoms: _446  and  _447
REMARK  197  A    between atoms: _452  and  _454
REMARK  198  A    between atoms: _454  and  _455
REMARK  199  A    between atoms: _454  and  _457
REMARK  200  A    between atoms: _457  and  _458
REMARK  201  A    between atoms: _461  and  _463
REMARK  202  A    between atoms: _463  and  _464
REMARK  203  A    between atoms: _463  and  _466
REMARK  204  A    between atoms: _466  and  _467
REMARK  205  A    between atoms: _470  and  _472
REMARK  206  A    between atoms: _472  and  _473
REMARK  207  A    between atoms: _472  and  _475
REMARK  208  A    between atoms: _475  and  _476
REMARK  209  A    between atoms: _479  and  _481
REMARK  210  A    between atoms: _481  and  _482
REMARK  211  A    between atoms: _481  and  _484
REMARK  212  A    between atoms: _484  and  _485
REMARK  213  A    between atoms: _485  and  _486
REMARK  214  A    between atoms: _491  and  _493
REMARK  215  A    between atoms: _493  and  _494
REMARK  216  A    between atoms: _493  and  _496
REMARK  217  A    between atoms: _499  and  _501
REMARK  218  A    between atoms: _501  and  _502
REMARK  219  A    between atoms: _501  and  _504
REMARK  220  A    between atoms: _504  and  _505
REMARK  221  A    between atoms: _508  and  _510
REMARK  222  A    between atoms: _510  and  _511
REMARK  223  A    between atoms: _510  and  _513
REMARK  224  A    between atoms: _513  and  _514
REMARK  225  A    between atoms: _517  and  _519
REMARK  226  A    between atoms: _519  and  _520
REMARK  227  A    between atoms: _519  and  _522
REMARK  228  A    between atoms: _522  and  _523
REMARK  229  A    between atoms: _529  and  _531
REMARK  230  A    between atoms: _531  and  _532
REMARK  231  A    between atoms: _534  and  _536
REMARK  232  A    between atoms: _536  and  _537
REMARK  233  A    between atoms: _536  and  _539
REMARK  234  A    between atoms: _539  and  _540
REMARK  235  A    between atoms: _546  and  _548
REMARK  236  A    between atoms: _548  and  _549
REMARK  237  A    between atoms: _552  and  _554
REMARK  238  A    between atoms: _554  and  _555
REMARK  239  A    between atoms: _557  and  _559
REMARK  240  A    between atoms: _559  and  _560
REMARK  241  A    between atoms: _559  and  _562
REMARK  242  A    between atoms: _562  and  _563
REMARK  243  A    between atoms: _566  and  _568
REMARK  244  A    between atoms: _568  and  _569
REMARK  245  A    between atoms: _568  and  _571
REMARK  246  A    between atoms: _571  and  _572
REMARK  247  A    between atoms: _578  and  _580
REMARK  248  A    between atoms: _580  and  _581
REMARK  249  A    between atoms: _580  and  _583
REMARK  250  A    between atoms: _583  and  _584
REMARK  251  A    between atoms: _589  and  _590
REMARK                            x       y       z     vdW  Elec       q    Type
REMARK                         _______ _______ _______ _____ _____    ______ ____
ROOT
ATOM      1  O   HOH     1      14.917  12.141  -7.701  0.00  0.00    +0.000 OA
ENDROOT
TORSDOF 0
REMARK  Name = ../refined-set-2016/1xh5/1xh5_pocket.pdb
REMARK  251 active torsions:
REMARK  status: ('A' for Active; 'I' for Inactive)
REMARK    1  A    between atoms: _1  and  _3
REMARK    2  A    between atoms: _3  and  _4
REMARK    3  A    between atoms: _3  and  _6
REMARK    4  A    between atoms: _6  and  _7
REMARK    5  A    between atoms: _10  and  _12
REMARK    6  A    between atoms: _12  and  _13
REMARK    7  A    between atoms: _12  and  _15
REMARK    8  A    between atoms: _15  and  _16
REMARK    9  A    between atoms: _19  and  _21
REMARK   10  A    between atoms: _21  and  _22
REMARK   11  A    between atoms: _24  and  _26
REMARK   12  A    between atoms: _26  and  _27
REMARK   13  A    between atoms: _26  and  _29
REMARK   14  A    between atoms: _29  and  _30
REMARK   15  A    between atoms: _33  and  _35
REMARK   16  A    between atoms: _35  and  _36
REMARK   17  A    between atoms: _38  and  _40
REMARK   18  A    between atoms: _40  and  _41
REMARK   19  A    between atoms: _40  and  _43
REMARK   20  A    between atoms: _43  and  _44
REMARK   21  A    between atoms: _46  and  _48
REMARK   22  A    between atoms: _48  and  _49
REMARK   23  A    between atoms: _48  and  _51
REMARK   24  A    between atoms: _51  and  _52
REMARK   25  A    between atoms: _58  and  _60
REMARK   26  A    between atoms: _60  and  _61
REMARK   27  A    between atoms: _63  and  _65
REMARK   28  A    between atoms: _65  and  _66
REMARK   29  A    between atoms: _65  and  _68
REMARK   30  A    between atoms: _68  and  _69
REMARK   31  A    between atoms: _69  and  _70
REMARK   32  A    between atoms: _70  and  _71
REMARK   33  A    between atoms: _80  and  _82
REMARK   34  A    between atoms: _82  and  _83
REMARK   35  A    between atoms: _82  and  _85
REMARK   36  A    between atoms: _88  and  _90
REMARK   37  A    between atoms: _90  and  _91
REMARK   38  A    between atoms: _90  and  _93
REMARK   39  A    between atoms: _93  and  _94
REMARK   40  A    between atoms: _94  and  _95
REMARK   41  A    between atoms: _97  and  _99
REMARK   42  A    between atoms: _99  and  _100
REMARK   43  A    between atoms: _99  and  _102
REMARK   44  A    between atoms: _102  and  _103
REMARK   45  A    between atoms: _106  and  _108
REMARK   46  A    between atoms: _108  and  _109
REMARK   47  A    between atoms: _108  and  _111
REMARK   48  A    between atoms: _111  and  _112
REMARK   49  A    between atoms: _117  and  _118
REMARK   50  A    between atoms: _120  and  _122
REMARK   51  A    between atoms: _122  and  _123
REMARK   52  A    between atoms: _126  and  _128
REMARK   53  A    between atoms: _128  and  _129
REMARK   54  A    between atoms: _128  and  _131
REMARK   55  A    between atoms: _131  and  _132
REMARK   56  A    between atoms: _132  and  _133
REMARK   57  A    between atoms: _135  and  _137
REMARK   58  A    between atoms: _137  and  _138
REMARK   59  A    between atoms: _137  and  _140
REMARK   60  A    between atoms: _140  and  _141
REMARK   61  A    between atoms: _141  and  _142
REMARK   62  A    between atoms: _142  and  _143
REMARK   63  A    between atoms: _143  and  _144
REMARK   64  A    between atoms: _148  and  _150
REMARK   65  A    between atoms: _150  and  _151
REMARK   66  A    between atoms: _150  and  _153
REMARK   67  A    between atoms: _153  and  _154
REMARK   68  A    between atoms: _157  and  _159
REMARK   69  A    between atoms: _159  and  _160
REMARK   70  A    between atoms: _159  and  _162
REMARK   71  A    between atoms: _162  and  _163
REMARK   72  A    between atoms: _166  and  _168
REMARK   73  A    between atoms: _168  and  _169
REMARK   74  A    between atoms: _168  and  _171
REMARK   75  A    between atoms: _171  and  _172
REMARK   76  A    between atoms: _175  and  _177
REMARK   77  A    between atoms: _177  and  _178
REMARK   78  A    between atoms: _177  and  _180
REMARK   79  A    between atoms: _180  and  _181
REMARK   80  A    between atoms: _181  and  _182
REMARK   81  A    between atoms: _182  and  _183
REMARK   82  A    between atoms: _183  and  _184
REMARK   83  A    between atoms: _188  and  _190
REMARK   84  A    between atoms: _190  and  _191
REMARK   85  A    between atoms: _190  and  _193
REMARK   86  A    between atoms: _196  and  _198
REMARK   87  A    between atoms: _198  and  _199
REMARK   88  A    between atoms: _198  and  _201
REMARK   89  A    between atoms: _201  and  _202
REMARK   90  A    between atoms: _205  and  _207
REMARK   91  A    between atoms: _207  and  _208
REMARK   92  A    between atoms: _207  and  _210
REMARK   93  A    between atoms: _210  and  _211
REMARK   94  A    between atoms: _211  and  _212
REMARK   95  A    between atoms: _212  and  _213
REMARK   96  A    between atoms: _213  and  _214
REMARK   97  A    between atoms: _218  and  _220
REMARK   98  A    between atoms: _220  and  _221
REMARK   99  A    between atoms: _220  and  _223
REMARK  100  A    between atoms: _223  and  _224
REMARK  101  A    between atoms: _224  and  _225
REMARK  102  A    between atoms: _230  and  _232
REMARK  103  A    between atoms: _232  and  _233
REMARK  104  A    between atoms: _232  and  _235
REMARK  105  A    between atoms: _235  and  _236
REMARK  106  A    between atoms: _241  and  _243
REMARK  107  A    between atoms: _243  and  _244
REMARK  108  A    between atoms: _243  and  _246
REMARK  109  A    between atoms: _246  and  _247
REMARK  110  A    between atoms: _250  and  _252
REMARK  111  A    between atoms: _252  and  _253
REMARK  112  A    between atoms: _252  and  _255
REMARK  113  A    between atoms: _255  and  _256
REMARK  114  A    between atoms: _256  and  _257
REMARK  115  A    between atoms: _260  and  _262
REMARK  116  A    between atoms: _262  and  _263
REMARK  117  A    between atoms: _262  and  _265
REMARK  118  A    between atoms: _265  and  _266
REMARK  119  A    between atoms: _269  and  _271
REMARK  120  A    between atoms: _271  and  _272
REMARK  121  A    between atoms: _271  and  _274
REMARK  122  A    between atoms: _277  and  _279
REMARK  123  A    between atoms: _279  and  _280
REMARK  124  A    between atoms: _279  and  _282
REMARK  125  A    between atoms: _282  and  _283
REMARK  126  A    between atoms: _283  and  _284
REMARK  127  A    between atoms: _284  and  _285
REMARK  128  A    between atoms: _285  and  _286
REMARK  129  A    between atoms: _290  and  _292
REMARK  130  A    between atoms: _292  and  _293
REMARK  131  A    between atoms: _292  and  _295
REMARK  132  A    between atoms: _295  and  _296
REMARK  133  A    between atoms: _296  and  _297
REMARK  134  A    between atoms: _299  and  _301
REMARK  135  A    between atoms: _301  and  _302
REMARK  136  A    between atoms: _301  and  _304
REMARK  137  A    between atoms: _304  and  _305
REMARK  138  A    between atoms: _305  and  _306
REMARK  139  A    between atoms: _308  and  _310
REMARK  140  A    between atoms: _310  and  _311
REMARK  141  A    between atoms: _310  and  _313
REMARK  142  A    between atoms: _313  and  _314
REMARK  143  A    between atoms: _314  and  _315
REMARK  144  A    between atoms: _318  and  _320
REMARK  145  A    between atoms: _320  and  _321
REMARK  146  A    between atoms: _320  and  _323
REMARK  147  A    between atoms: _323  and  _324
REMARK  148  A    between atoms: _329  and  _330
REMARK  149  A    between atoms: _332  and  _334
REMARK  150  A    between atoms: _334  and  _335
REMARK  151  A    between atoms: _334  and  _337
REMARK  152  A    between atoms: _341  and  _342
REMARK  153  A    between atoms: _347  and  _349
REMARK  154  A    between atoms: _349  and  _350
REMARK  155  A    between atoms: _352  and  _354
REMARK  156  A    between atoms: _354  and  _355
REMARK  157  A    between atoms: _357  and  _359
REMARK  158  A    between atoms: _359  and  _360
REMARK  159  A    between atoms: _359  and  _362
REMARK  160  A    between atoms: _362  and  _363
REMARK  161  A    between atoms: _363  and  _364
REMARK  162  A    between atoms: _367  and  _369
REMARK  163  A    between atoms: _369  and  _370
REMARK  164  A    between atoms: _369  and  _372
REMARK  165  A    between atoms: _372  and  _373
REMARK  166  A    between atoms: _373  and  _374
REMARK  167  A    between atoms: _376  and  _378
REMARK  168  A    between atoms: _378  and  _379
REMARK  169  A    between atoms: _378  and  _381
REMARK  170  A    between atoms: _381  and  _382
REMARK  171  A    between atoms: _388  and  _390
REMARK  172  A    between atoms: _390  and  _391
REMARK  173  A    between atoms: _390  and  _393
REMARK  174  A    between atoms: _393  and  _394
REMARK  175  A    between atoms: _399  and  _400
REMARK  176  A    between atoms: _402  and  _404
REMARK  177  A    between atoms: _404  and  _405
REMARK  178  A    between atoms: _404  and  _407
REMARK  179  A    between atoms: _407  and  _408
REMARK  180  A    between atoms: _411  and  _413
REMARK  181  A    between atoms: _413  and  _414
REMARK  182  A    between atoms: _413  and  _416
REMARK  183  A    between atoms: _416  and  _417
REMARK  184  A    between atoms: _417  and  _418
REMARK  185  A    between atoms: _418  and  _419
REMARK  186  A    between atoms: _419  and  _420
REMARK  187  A    between atoms: _425  and  _426
REMARK  188  A    between atoms: _431  and  _433
REMARK  189  A    between atoms: _433  and  _434
REMARK  190  A    between atoms: _433  and  _436
REMARK  191  A    between atoms: _436  and  _437
REMARK  192  A    between atoms: _437  and  _438
REMARK  193  A    between atoms: _441  and  _443
REMARK  194  A    between atoms: _443  and  _444
REMARK  195  A    between atoms: _443  and  _446
REMARK  196  A    between atoms: _446  and  _447
REMARK  197  A    between atoms: _452  and  _454
REMARK  198  A    between atoms: _454  and  _455
REMARK  199  A    between atoms: _454  and  _457
REMARK  200  A    between atoms: _457  and  _458
REMARK  201  A    between atoms: _461  and  _463
REMARK  202  A    between atoms: _463  and  _464
REMARK  203  A    between atoms: _463  and  _466
REMARK  204  A    between atoms: _466  and  _467
REMARK  205  A    between atoms: _470  and  _472
REMARK  206  A    between atoms: _472  and  _473
REMARK  207  A    between atoms: _472  and  _475
REMARK  208  A    between atoms: _475  and  _476
REMARK  209  A    between atoms: _479  and  _481
REMARK  210  A    between atoms: _481  and  _482
REMARK  211  A    between atoms: _481  and  _484
REMARK  212  A    between atoms: _484  and  _485
REMARK  213  A    between atoms: _485  and  _486
REMARK  214  A    between atoms: _491  and  _493
REMARK  215  A    between atoms: _493  and  _494
REMARK  216  A    between atoms: _493  and  _496
REMARK  217  A    between atoms: _499  and  _501
REMARK  218  A    between atoms: _501  and  _502
REMARK  219  A    between atoms: _501  and  _504
REMARK  220  A    between atoms: _504  and  _505
REMARK  221  A    between atoms: _508  and  _510
REMARK  222  A    between atoms: _510  and  _511
REMARK  223  A    between atoms: _510  and  _513
REMARK  224  A    between atoms: _513  and  _514
REMARK  225  A    between atoms: _517  and  _519
REMARK  226  A    between atoms: _519  and  _520
REMARK  227  A    between atoms: _519  and  _522
REMARK  228  A    between atoms: _522  and  _523
REMARK  229  A    between atoms: _529  and  _531
REMARK  230  A    between atoms: _531  and  _532
REMARK  231  A    between atoms: _534  and  _536
REMARK  232  A    between atoms: _536  and  _537
REMARK  233  A    between atoms: _536  and  _539
REMARK  234  A    between atoms: _539  and  _540
REMARK  235  A    between atoms: _546  and  _548
REMARK  236  A    between atoms: _548  and  _549
REMARK  237  A    between atoms: _552  and  _554
REMARK  238  A    between atoms: _554  and  _555
REMARK  239  A    between atoms: _557  and  _559
REMARK  240  A    between atoms: _559  and  _560
REMARK  241  A    between atoms: _559  and  _562
REMARK  242  A    between atoms: _562  and  _563
REMARK  243  A    between atoms: _566  and  _568
REMARK  244  A    between atoms: _568  and  _569
REMARK  245  A    between atoms: _568  and  _571
REMARK  246  A    between atoms: _571  and  _572
REMARK  247  A    between atoms: _578  and  _580
REMARK  248  A    between atoms: _580  and  _581
REMARK  249  A    between atoms: _580  and  _583
REMARK  250  A    between atoms: _583  and  _584
REMARK  251  A    between atoms: _589  and  _590
REMARK                            x       y       z     vdW  Elec       q    Type
REMARK                         _______ _______ _______ _____ _____    ______ ____
ROOT
ATOM      1  O   HOH     1      -4.002  10.663   5.341  0.00  0.00    +0.000 OA
ENDROOT
TORSDOF 0
REMARK  Name = ../refined-set-2016/1xh5/1xh5_pocket.pdb
REMARK  251 active torsions:
REMARK  status: ('A' for Active; 'I' for Inactive)
REMARK    1  A    between atoms: _1  and  _3
REMARK    2  A    between atoms: _3  and  _4
REMARK    3  A    between atoms: _3  and  _6
REMARK    4  A    between atoms: _6  and  _7
REMARK    5  A    between atoms: _10  and  _12
REMARK    6  A    between atoms: _12  and  _13
REMARK    7  A    between atoms: _12  and  _15
REMARK    8  A    between atoms: _15  and  _16
REMARK    9  A    between atoms: _19  and  _21
REMARK   10  A    between atoms: _21  and  _22
REMARK   11  A    between atoms: _24  and  _26
REMARK   12  A    between atoms: _26  and  _27
REMARK   13  A    between atoms: _26  and  _29
REMARK   14  A    between atoms: _29  and  _30
REMARK   15  A    between atoms: _33  and  _35
REMARK   16  A    between atoms: _35  and  _36
REMARK   17  A    between atoms: _38  and  _40
REMARK   18  A    between atoms: _40  and  _41
REMARK   19  A    between atoms: _40  and  _43
REMARK   20  A    between atoms: _43  and  _44
REMARK   21  A    between atoms: _46  and  _48
REMARK   22  A    between atoms: _48  and  _49
REMARK   23  A    between atoms: _48  and  _51
REMARK   24  A    between atoms: _51  and  _52
REMARK   25  A    between atoms: _58  and  _60
REMARK   26  A    between atoms: _60  and  _61
REMARK   27  A    between atoms: _63  and  _65
REMARK   28  A    between atoms: _65  and  _66
REMARK   29  A    between atoms: _65  and  _68
REMARK   30  A    between atoms: _68  and  _69
REMARK   31  A    between atoms: _69  and  _70
REMARK   32  A    between atoms: _70  and  _71
REMARK   33  A    between atoms: _80  and  _82
REMARK   34  A    between atoms: _82  and  _83
REMARK   35  A    between atoms: _82  and  _85
REMARK   36  A    between atoms: _88  and  _90
REMARK   37  A    between atoms: _90  and  _91
REMARK   38  A    between atoms: _90  and  _93
REMARK   39  A    between atoms: _93  and  _94
REMARK   40  A    between atoms: _94  and  _95
REMARK   41  A    between atoms: _97  and  _99
REMARK   42  A    between atoms: _99  and  _100
REMARK   43  A    between atoms: _99  and  _102
REMARK   44  A    between atoms: _102  and  _103
REMARK   45  A    between atoms: _106  and  _108
REMARK   46  A    between atoms: _108  and  _109
REMARK   47  A    between atoms: _108  and  _111
REMARK   48  A    between atoms: _111  and  _112
REMARK   49  A    between atoms: _117  and  _118
REMARK   50  A    between atoms: _120  and  _122
REMARK   51  A    between atoms: _122  and  _123
REMARK   52  A    between atoms: _126  and  _128
REMARK   53  A    between atoms: _128  and  _129
REMARK   54  A    between atoms: _128  and  _131
REMARK   55  A    between atoms: _131  and  _132
REMARK   56  A    between atoms: _132  and  _133
REMARK   57  A    between atoms: _135  and  _137
REMARK   58  A    between atoms: _137  and  _138
REMARK   59  A    between atoms: _137  and  _140
REMARK   60  A    between atoms: _140  and  _141
REMARK   61  A    between atoms: _141  and  _142
REMARK   62  A    between atoms: _142  and  _143
REMARK   63  A    between atoms: _143  and  _144
REMARK   64  A    between atoms: _148  and  _150
REMARK   65  A    between atoms: _150  and  _151
REMARK   66  A    between atoms: _150  and  _153
REMARK   67  A    between atoms: _153  and  _154
REMARK   68  A    between atoms: _157  and  _159
REMARK   69  A    between atoms: _159  and  _160
REMARK   70  A    between atoms: _159  and  _162
REMARK   71  A    between atoms: _162  and  _163
REMARK   72  A    between atoms: _166  and  _168
REMARK   73  A    between atoms: _168  and  _169
REMARK   74  A    between atoms: _168  and  _171
REMARK   75  A    between atoms: _171  and  _172
REMARK   76  A    between atoms: _175  and  _177
REMARK   77  A    between atoms: _177  and  _178
REMARK   78  A    between atoms: _177  and  _180
REMARK   79  A    between atoms: _180  and  _181
REMARK   80  A    between atoms: _181  and  _182
REMARK   81  A    between atoms: _182  and  _183
REMARK   82  A    between atoms: _183  and  _184
REMARK   83  A    between atoms: _188  and  _190
REMARK   84  A    between atoms: _190  and  _191
REMARK   85  A    between atoms: _190  and  _193
REMARK   86  A    between atoms: _196  and  _198
REMARK   87  A    between atoms: _198  and  _199
REMARK   88  A    between atoms: _198  and  _201
REMARK   89  A    between atoms: _201  and  _202
REMARK   90  A    between atoms: _205  and  _207
REMARK   91  A    between atoms: _207  and  _208
REMARK   92  A    between atoms: _207  and  _210
REMARK   93  A    between atoms: _210  and  _211
REMARK   94  A    between atoms: _211  and  _212
REMARK   95  A    between atoms: _212  and  _213
REMARK   96  A    between atoms: _213  and  _214
REMARK   97  A    between atoms: _218  and  _220
REMARK   98  A    between atoms: _220  and  _221
REMARK   99  A    between atoms: _220  and  _223
REMARK  100  A    between atoms: _223  and  _224
REMARK  101  A    between atoms: _224  and  _225
REMARK  102  A    between atoms: _230  and  _232
REMARK  103  A    between atoms: _232  and  _233
REMARK  104  A    between atoms: _232  and  _235
REMARK  105  A    between atoms: _235  and  _236
REMARK  106  A    between atoms: _241  and  _243
REMARK  107  A    between atoms: _243  and  _244
REMARK  108  A    between atoms: _243  and  _246
REMARK  109  A    between atoms: _246  and  _247
REMARK  110  A    between atoms: _250  and  _252
REMARK  111  A    between atoms: _252  and  _253
REMARK  112  A    between atoms: _252  and  _255
REMARK  113  A    between atoms: _255  and  _256
REMARK  114  A    between atoms: _256  and  _257
REMARK  115  A    between atoms: _260  and  _262
REMARK  116  A    between atoms: _262  and  _263
REMARK  117  A    between atoms: _262  and  _265
REMARK  118  A    between atoms: _265  and  _266
REMARK  119  A    between atoms: _269  and  _271
REMARK  120  A    between atoms: _271  and  _272
REMARK  121  A    between atoms: _271  and  _274
REMARK  122  A    between atoms: _277  and  _279
REMARK  123  A    between atoms: _279  and  _280
REMARK  124  A    between atoms: _279  and  _282
REMARK  125  A    between atoms: _282  and  _283
REMARK  126  A    between atoms: _283  and  _284
REMARK  127  A    between atoms: _284  and  _285
REMARK  128  A    between atoms: _285  and  _286
REMARK  129  A    between atoms: _290  and  _292
REMARK  130  A    between atoms: _292  and  _293
REMARK  131  A    between atoms: _292  and  _295
REMARK  132  A    between atoms: _295  and  _296
REMARK  133  A    between atoms: _296  and  _297
REMARK  134  A    between atoms: _299  and  _301
REMARK  135  A    between atoms: _301  and  _302
REMARK  136  A    between atoms: _301  and  _304
REMARK  137  A    between atoms: _304  and  _305
REMARK  138  A    between atoms: _305  and  _306
REMARK  139  A    between atoms: _308  and  _310
REMARK  140  A    between atoms: _310  and  _311
REMARK  141  A    between atoms: _310  and  _313
REMARK  142  A    between atoms: _313  and  _314
REMARK  143  A    between atoms: _314  and  _315
REMARK  144  A    between atoms: _318  and  _320
REMARK  145  A    between atoms: _320  and  _321
REMARK  146  A    between atoms: _320  and  _323
REMARK  147  A    between atoms: _323  and  _324
REMARK  148  A    between atoms: _329  and  _330
REMARK  149  A    between atoms: _332  and  _334
REMARK  150  A    between atoms: _334  and  _335
REMARK  151  A    between atoms: _334  and  _337
REMARK  152  A    between atoms: _341  and  _342
REMARK  153  A    between atoms: _347  and  _349
REMARK  154  A    between atoms: _349  and  _350
REMARK  155  A    between atoms: _352  and  _354
REMARK  156  A    between atoms: _354  and  _355
REMARK  157  A    between atoms: _357  and  _359
REMARK  158  A    between atoms: _359  and  _360
REMARK  159  A    between atoms: _359  and  _362
REMARK  160  A    between atoms: _362  and  _363
REMARK  161  A    between atoms: _363  and  _364
REMARK  162  A    between atoms: _367  and  _369
REMARK  163  A    between atoms: _369  and  _370
REMARK  164  A    between atoms: _369  and  _372
REMARK  165  A    between atoms: _372  and  _373
REMARK  166  A    between atoms: _373  and  _374
REMARK  167  A    between atoms: _376  and  _378
REMARK  168  A    between atoms: _378  and  _379
REMARK  169  A    between atoms: _378  and  _381
REMARK  170  A    between atoms: _381  and  _382
REMARK  171  A    between atoms: _388  and  _390
REMARK  172  A    between atoms: _390  and  _391
REMARK  173  A    between atoms: _390  and  _393
REMARK  174  A    between atoms: _393  and  _394
REMARK  175  A    between atoms: _399  and  _400
REMARK  176  A    between atoms: _402  and  _404
REMARK  177  A    between atoms: _404  and  _405
REMARK  178  A    between atoms: _404  and  _407
REMARK  179  A    between atoms: _407  and  _408
REMARK  180  A    between atoms: _411  and  _413
REMARK  181  A    between atoms: _413  and  _414
REMARK  182  A    between atoms: _413  and  _416
REMARK  183  A    between atoms: _416  and  _417
REMARK  184  A    between atoms: _417  and  _418
REMARK  185  A    between atoms: _418  and  _419
REMARK  186  A    between atoms: _419  and  _420
REMARK  187  A    between atoms: _425  and  _426
REMARK  188  A    between atoms: _431  and  _433
REMARK  189  A    between atoms: _433  and  _434
REMARK  190  A    between atoms: _433  and  _436
REMARK  191  A    between atoms: _436  and  _437
REMARK  192  A    between atoms: _437  and  _438
REMARK  193  A    between atoms: _441  and  _443
REMARK  194  A    between atoms: _443  and  _444
REMARK  195  A    between atoms: _443  and  _446
REMARK  196  A    between atoms: _446  and  _447
REMARK  197  A    between atoms: _452  and  _454
REMARK  198  A    between atoms: _454  and  _455
REMARK  199  A    between atoms: _454  and  _457
REMARK  200  A    between atoms: _457  and  _458
REMARK  201  A    between atoms: _461  and  _463
REMARK  202  A    between atoms: _463  and  _464
REMARK  203  A    between atoms: _463  and  _466
REMARK  204  A    between atoms: _466  and  _467
REMARK  205  A    between atoms: _470  and  _472
REMARK  206  A    between atoms: _472  and  _473
REMARK  207  A    between atoms: _472  and  _475
REMARK  208  A    between atoms: _475  and  _476
REMARK  209  A    between atoms: _479  and  _481
REMARK  210  A    between atoms: _481  and  _482
REMARK  211  A    between atoms: _481  and  _484
REMARK  212  A    between atoms: _484  and  _485
REMARK  213  A    between atoms: _485  and  _486
REMARK  214  A    between atoms: _491  and  _493
REMARK  215  A    between atoms: _493  and  _494
REMARK  216  A    between atoms: _493  and  _496
REMARK  217  A    between atoms: _499  and  _501
REMARK  218  A    between atoms: _501  and  _502
REMARK  219  A    between atoms: _501  and  _504
REMARK  220  A    between atoms: _504  and  _505
REMARK  221  A    between atoms: _508  and  _510
REMARK  222  A    between atoms: _510  and  _511
REMARK  223  A    between atoms: _510  and  _513
REMARK  224  A    between atoms: _513  and  _514
REMARK  225  A    between atoms: _517  and  _519
REMARK  226  A    between atoms: _519  and  _520
REMARK  227  A    between atoms: _519  and  _522
REMARK  228  A    between atoms: _522  and  _523
REMARK  229  A    between atoms: _529  and  _531
REMARK  230  A    between atoms: _531  and  _532
REMARK  231  A    between atoms: _534  and  _536
REMARK  232  A    between atoms: _536  and  _537
REMARK  233  A    between atoms: _536  and  _539
REMARK  234  A    between atoms: _539  and  _540
REMARK  235  A    between atoms: _546  and  _548
REMARK  236  A    between atoms: _548  and  _549
REMARK  237  A    between atoms: _552  and  _554
REMARK  238  A    between atoms: _554  and  _555
REMARK  239  A    between atoms: _557  and  _559
REMARK  240  A    between atoms: _559  and  _560
REMARK  241  A    between atoms: _559  and  _562
REMARK  242  A    between atoms: _562  and  _563
REMARK  243  A    between atoms: _566  and  _568
REMARK  244  A    between atoms: _568  and  _569
REMARK  245  A    between atoms: _568  and  _571
REMARK  246  A    between atoms: _571  and  _572
REMARK  247  A    between atoms: _578  and  _580
REMARK  248  A    between atoms: _580  and  _581
REMARK  249  A    between atoms: _580  and  _583
REMARK  250  A    between atoms: _583  and  _584
REMARK  251  A    between atoms: _589  and  _590
REMARK                            x       y       z     vdW  Elec       q    Type
REMARK                         _______ _______ _______ _____ _____    ______ ____
ROOT
ATOM      1  O   HOH     1       7.009   9.213  -2.668  0.00  0.00    +0.000 OA
ENDROOT
TORSDOF 0
REMARK  Name = ../refined-set-2016/1xh5/1xh5_pocket.pdb
REMARK  251 active torsions:
REMARK  status: ('A' for Active; 'I' for Inactive)
REMARK    1  A    between atoms: _1  and  _3
REMARK    2  A    between atoms: _3  and  _4
REMARK    3  A    between atoms: _3  and  _6
REMARK    4  A    between atoms: _6  and  _7
REMARK    5  A    between atoms: _10  and  _12
REMARK    6  A    between atoms: _12  and  _13
REMARK    7  A    between atoms: _12  and  _15
REMARK    8  A    between atoms: _15  and  _16
REMARK    9  A    between atoms: _19  and  _21
REMARK   10  A    between atoms: _21  and  _22
REMARK   11  A    between atoms: _24  and  _26
REMARK   12  A    between atoms: _26  and  _27
REMARK   13  A    between atoms: _26  and  _29
REMARK   14  A    between atoms: _29  and  _30
REMARK   15  A    between atoms: _33  and  _35
REMARK   16  A    between atoms: _35  and  _36
REMARK   17  A    between atoms: _38  and  _40
REMARK   18  A    between atoms: _40  and  _41
REMARK   19  A    between atoms: _40  and  _43
REMARK   20  A    between atoms: _43  and  _44
REMARK   21  A    between atoms: _46  and  _48
REMARK   22  A    between atoms: _48  and  _49
REMARK   23  A    between atoms: _48  and  _51
REMARK   24  A    between atoms: _51  and  _52
REMARK   25  A    between atoms: _58  and  _60
REMARK   26  A    between atoms: _60  and  _61
REMARK   27  A    between atoms: _63  and  _65
REMARK   28  A    between atoms: _65  and  _66
REMARK   29  A    between atoms: _65  and  _68
REMARK   30  A    between atoms: _68  and  _69
REMARK   31  A    between atoms: _69  and  _70
REMARK   32  A    between atoms: _70  and  _71
REMARK   33  A    between atoms: _80  and  _82
REMARK   34  A    between atoms: _82  and  _83
REMARK   35  A    between atoms: _82  and  _85
REMARK   36  A    between atoms: _88  and  _90
REMARK   37  A    between atoms: _90  and  _91
REMARK   38  A    between atoms: _90  and  _93
REMARK   39  A    between atoms: _93  and  _94
REMARK   40  A    between atoms: _94  and  _95
REMARK   41  A    between atoms: _97  and  _99
REMARK   42  A    between atoms: _99  and  _100
REMARK   43  A    between atoms: _99  and  _102
REMARK   44  A    between atoms: _102  and  _103
REMARK   45  A    between atoms: _106  and  _108
REMARK   46  A    between atoms: _108  and  _109
REMARK   47  A    between atoms: _108  and  _111
REMARK   48  A    between atoms: _111  and  _112
REMARK   49  A    between atoms: _117  and  _118
REMARK   50  A    between atoms: _120  and  _122
REMARK   51  A    between atoms: _122  and  _123
REMARK   52  A    between atoms: _126  and  _128
REMARK   53  A    between atoms: _128  and  _129
REMARK   54  A    between atoms: _128  and  _131
REMARK   55  A    between atoms: _131  and  _132
REMARK   56  A    between atoms: _132  and  _133
REMARK   57  A    between atoms: _135  and  _137
REMARK   58  A    between atoms: _137  and  _138
REMARK   59  A    between atoms: _137  and  _140
REMARK   60  A    between atoms: _140  and  _141
REMARK   61  A    between atoms: _141  and  _142
REMARK   62  A    between atoms: _142  and  _143
REMARK   63  A    between atoms: _143  and  _144
REMARK   64  A    between atoms: _148  and  _150
REMARK   65  A    between atoms: _150  and  _151
REMARK   66  A    between atoms: _150  and  _153
REMARK   67  A    between atoms: _153  and  _154
REMARK   68  A    between atoms: _157  and  _159
REMARK   69  A    between atoms: _159  and  _160
REMARK   70  A    between atoms: _159  and  _162
REMARK   71  A    between atoms: _162  and  _163
REMARK   72  A    between atoms: _166  and  _168
REMARK   73  A    between atoms: _168  and  _169
REMARK   74  A    between atoms: _168  and  _171
REMARK   75  A    between atoms: _171  and  _172
REMARK   76  A    between atoms: _175  and  _177
REMARK   77  A    between atoms: _177  and  _178
REMARK   78  A    between atoms: _177  and  _180
REMARK   79  A    between atoms: _180  and  _181
REMARK   80  A    between atoms: _181  and  _182
REMARK   81  A    between atoms: _182  and  _183
REMARK   82  A    between atoms: _183  and  _184
REMARK   83  A    between atoms: _188  and  _190
REMARK   84  A    between atoms: _190  and  _191
REMARK   85  A    between atoms: _190  and  _193
REMARK   86  A    between atoms: _196  and  _198
REMARK   87  A    between atoms: _198  and  _199
REMARK   88  A    between atoms: _198  and  _201
REMARK   89  A    between atoms: _201  and  _202
REMARK   90  A    between atoms: _205  and  _207
REMARK   91  A    between atoms: _207  and  _208
REMARK   92  A    between atoms: _207  and  _210
REMARK   93  A    between atoms: _210  and  _211
REMARK   94  A    between atoms: _211  and  _212
REMARK   95  A    between atoms: _212  and  _213
REMARK   96  A    between atoms: _213  and  _214
REMARK   97  A    between atoms: _218  and  _220
REMARK   98  A    between atoms: _220  and  _221
REMARK   99  A    between atoms: _220  and  _223
REMARK  100  A    between atoms: _223  and  _224
REMARK  101  A    between atoms: _224  and  _225
REMARK  102  A    between atoms: _230  and  _232
REMARK  103  A    between atoms: _232  and  _233
REMARK  104  A    between atoms: _232  and  _235
REMARK  105  A    between atoms: _235  and  _236
REMARK  106  A    between atoms: _241  and  _243
REMARK  107  A    between atoms: _243  and  _244
REMARK  108  A    between atoms: _243  and  _246
REMARK  109  A    between atoms: _246  and  _247
REMARK  110  A    between atoms: _250  and  _252
REMARK  111  A    between atoms: _252  and  _253
REMARK  112  A    between atoms: _252  and  _255
REMARK  113  A    between atoms: _255  and  _256
REMARK  114  A    between atoms: _256  and  _257
REMARK  115  A    between atoms: _260  and  _262
REMARK  116  A    between atoms: _262  and  _263
REMARK  117  A    between atoms: _262  and  _265
REMARK  118  A    between atoms: _265  and  _266
REMARK  119  A    between atoms: _269  and  _271
REMARK  120  A    between atoms: _271  and  _272
REMARK  121  A    between atoms: _271  and  _274
REMARK  122  A    between atoms: _277  and  _279
REMARK  123  A    between atoms: _279  and  _280
REMARK  124  A    between atoms: _279  and  _282
REMARK  125  A    between atoms: _282  and  _283
REMARK  126  A    between atoms: _283  and  _284
REMARK  127  A    between atoms: _284  and  _285
REMARK  128  A    between atoms: _285  and  _286
REMARK  129  A    between atoms: _290  and  _292
REMARK  130  A    between atoms: _292  and  _293
REMARK  131  A    between atoms: _292  and  _295
REMARK  132  A    between atoms: _295  and  _296
REMARK  133  A    between atoms: _296  and  _297
REMARK  134  A    between atoms: _299  and  _301
REMARK  135  A    between atoms: _301  and  _302
REMARK  136  A    between atoms: _301  and  _304
REMARK  137  A    between atoms: _304  and  _305
REMARK  138  A    between atoms: _305  and  _306
REMARK  139  A    between atoms: _308  and  _310
REMARK  140  A    between atoms: _310  and  _311
REMARK  141  A    between atoms: _310  and  _313
REMARK  142  A    between atoms: _313  and  _314
REMARK  143  A    between atoms: _314  and  _315
REMARK  144  A    between atoms: _318  and  _320
REMARK  145  A    between atoms: _320  and  _321
REMARK  146  A    between atoms: _320  and  _323
REMARK  147  A    between atoms: _323  and  _324
REMARK  148  A    between atoms: _329  and  _330
REMARK  149  A    between atoms: _332  and  _334
REMARK  150  A    between atoms: _334  and  _335
REMARK  151  A    between atoms: _334  and  _337
REMARK  152  A    between atoms: _341  and  _342
REMARK  153  A    between atoms: _347  and  _349
REMARK  154  A    between atoms: _349  and  _350
REMARK  155  A    between atoms: _352  and  _354
REMARK  156  A    between atoms: _354  and  _355
REMARK  157  A    between atoms: _357  and  _359
REMARK  158  A    between atoms: _359  and  _360
REMARK  159  A    between atoms: _359  and  _362
REMARK  160  A    between atoms: _362  and  _363
REMARK  161  A    between atoms: _363  and  _364
REMARK  162  A    between atoms: _367  and  _369
REMARK  163  A    between atoms: _369  and  _370
REMARK  164  A    between atoms: _369  and  _372
REMARK  165  A    between atoms: _372  and  _373
REMARK  166  A    between atoms: _373  and  _374
REMARK  167  A    between atoms: _376  and  _378
REMARK  168  A    between atoms: _378  and  _379
REMARK  169  A    between atoms: _378  and  _381
REMARK  170  A    between atoms: _381  and  _382
REMARK  171  A    between atoms: _388  and  _390
REMARK  172  A    between atoms: _390  and  _391
REMARK  173  A    between atoms: _390  and  _393
REMARK  174  A    between atoms: _393  and  _394
REMARK  175  A    between atoms: _399  and  _400
REMARK  176  A    between atoms: _402  and  _404
REMARK  177  A    between atoms: _404  and  _405
REMARK  178  A    between atoms: _404  and  _407
REMARK  179  A    between atoms: _407  and  _408
REMARK  180  A    between atoms: _411  and  _413
REMARK  181  A    between atoms: _413  and  _414
REMARK  182  A    between atoms: _413  and  _416
REMARK  183  A    between atoms: _416  and  _417
REMARK  184  A    between atoms: _417  and  _418
REMARK  185  A    between atoms: _418  and  _419
REMARK  186  A    between atoms: _419  and  _420
REMARK  187  A    between atoms: _425  and  _426
REMARK  188  A    between atoms: _431  and  _433
REMARK  189  A    between atoms: _433  and  _434
REMARK  190  A    between atoms: _433  and  _436
REMARK  191  A    between atoms: _436  and  _437
REMARK  192  A    between atoms: _437  and  _438
REMARK  193  A    between atoms: _441  and  _443
REMARK  194  A    between atoms: _443  and  _444
REMARK  195  A    between atoms: _443  and  _446
REMARK  196  A    between atoms: _446  and  _447
REMARK  197  A    between atoms: _452  and  _454
REMARK  198  A    between atoms: _454  and  _455
REMARK  199  A    between atoms: _454  and  _457
REMARK  200  A    between atoms: _457  and  _458
REMARK  201  A    between atoms: _461  and  _463
REMARK  202  A    between atoms: _463  and  _464
REMARK  203  A    between atoms: _463  and  _466
REMARK  204  A    between atoms: _466  and  _467
REMARK  205  A    between atoms: _470  and  _472
REMARK  206  A    between atoms: _472  and  _473
REMARK  207  A    between atoms: _472  and  _475
REMARK  208  A    between atoms: _475  and  _476
REMARK  209  A    between atoms: _479  and  _481
REMARK  210  A    between atoms: _481  and  _482
REMARK  211  A    between atoms: _481  and  _484
REMARK  212  A    between atoms: _484  and  _485
REMARK  213  A    between atoms: _485  and  _486
REMARK  214  A    between atoms: _491  and  _493
REMARK  215  A    between atoms: _493  and  _494
REMARK  216  A    between atoms: _493  and  _496
REMARK  217  A    between atoms: _499  and  _501
REMARK  218  A    between atoms: _501  and  _502
REMARK  219  A    between atoms: _501  and  _504
REMARK  220  A    between atoms: _504  and  _505
REMARK  221  A    between atoms: _508  and  _510
REMARK  222  A    between atoms: _510  and  _511
REMARK  223  A    between atoms: _510  and  _513
REMARK  224  A    between atoms: _513  and  _514
REMARK  225  A    between atoms: _517  and  _519
REMARK  226  A    between atoms: _519  and  _520
REMARK  227  A    between atoms: _519  and  _522
REMARK  228  A    between atoms: _522  and  _523
REMARK  229  A    between atoms: _529  and  _531
REMARK  230  A    between atoms: _531  and  _532
REMARK  231  A    between atoms: _534  and  _536
REMARK  232  A    between atoms: _536  and  _537
REMARK  233  A    between atoms: _536  and  _539
REMARK  234  A    between atoms: _539  and  _540
REMARK  235  A    between atoms: _546  and  _548
REMARK  236  A    between atoms: _548  and  _549
REMARK  237  A    between atoms: _552  and  _554
REMARK  238  A    between atoms: _554  and  _555
REMARK  239  A    between atoms: _557  and  _559
REMARK  240  A    between atoms: _559  and  _560
REMARK  241  A    between atoms: _559  and  _562
REMARK  242  A    between atoms: _562  and  _563
REMARK  243  A    between atoms: _566  and  _568
REMARK  244  A    between atoms: _568  and  _569
REMARK  245  A    between atoms: _568  and  _571
REMARK  246  A    between atoms: _571  and  _572
REMARK  247  A    between atoms: _578  and  _580
REMARK  248  A    between atoms: _580  and  _581
REMARK  249  A    between atoms: _580  and  _583
REMARK  250  A    between atoms: _583  and  _584
REMARK  251  A    between atoms: _589  and  _590
REMARK                            x       y       z     vdW  Elec       q    Type
REMARK                         _______ _______ _______ _____ _____    ______ ____
ROOT
ATOM      1  O   HOH     1      15.058   8.547   0.407  0.00  0.00    +0.000 OA
ENDROOT
TORSDOF 0
REMARK  Name = ../refined-set-2016/1xh5/1xh5_pocket.pdb
REMARK  251 active torsions:
REMARK  status: ('A' for Active; 'I' for Inactive)
REMARK    1  A    between atoms: _1  and  _3
REMARK    2  A    between atoms: _3  and  _4
REMARK    3  A    between atoms: _3  and  _6
REMARK    4  A    between atoms: _6  and  _7
REMARK    5  A    between atoms: _10  and  _12
REMARK    6  A    between atoms: _12  and  _13
REMARK    7  A    between atoms: _12  and  _15
REMARK    8  A    between atoms: _15  and  _16
REMARK    9  A    between atoms: _19  and  _21
REMARK   10  A    between atoms: _21  and  _22
REMARK   11  A    between atoms: _24  and  _26
REMARK   12  A    between atoms: _26  and  _27
REMARK   13  A    between atoms: _26  and  _29
REMARK   14  A    between atoms: _29  and  _30
REMARK   15  A    between atoms: _33  and  _35
REMARK   16  A    between atoms: _35  and  _36
REMARK   17  A    between atoms: _38  and  _40
REMARK   18  A    between atoms: _40  and  _41
REMARK   19  A    between atoms: _40  and  _43
REMARK   20  A    between atoms: _43  and  _44
REMARK   21  A    between atoms: _46  and  _48
REMARK   22  A    between atoms: _48  and  _49
REMARK   23  A    between atoms: _48  and  _51
REMARK   24  A    between atoms: _51  and  _52
REMARK   25  A    between atoms: _58  and  _60
REMARK   26  A    between atoms: _60  and  _61
REMARK   27  A    between atoms: _63  and  _65
REMARK   28  A    between atoms: _65  and  _66
REMARK   29  A    between atoms: _65  and  _68
REMARK   30  A    between atoms: _68  and  _69
REMARK   31  A    between atoms: _69  and  _70
REMARK   32  A    between atoms: _70  and  _71
REMARK   33  A    between atoms: _80  and  _82
REMARK   34  A    between atoms: _82  and  _83
REMARK   35  A    between atoms: _82  and  _85
REMARK   36  A    between atoms: _88  and  _90
REMARK   37  A    between atoms: _90  and  _91
REMARK   38  A    between atoms: _90  and  _93
REMARK   39  A    between atoms: _93  and  _94
REMARK   40  A    between atoms: _94  and  _95
REMARK   41  A    between atoms: _97  and  _99
REMARK   42  A    between atoms: _99  and  _100
REMARK   43  A    between atoms: _99  and  _102
REMARK   44  A    between atoms: _102  and  _103
REMARK   45  A    between atoms: _106  and  _108
REMARK   46  A    between atoms: _108  and  _109
REMARK   47  A    between atoms: _108  and  _111
REMARK   48  A    between atoms: _111  and  _112
REMARK   49  A    between atoms: _117  and  _118
REMARK   50  A    between atoms: _120  and  _122
REMARK   51  A    between atoms: _122  and  _123
REMARK   52  A    between atoms: _126  and  _128
REMARK   53  A    between atoms: _128  and  _129
REMARK   54  A    between atoms: _128  and  _131
REMARK   55  A    between atoms: _131  and  _132
REMARK   56  A    between atoms: _132  and  _133
REMARK   57  A    between atoms: _135  and  _137
REMARK   58  A    between atoms: _137  and  _138
REMARK   59  A    between atoms: _137  and  _140
REMARK   60  A    between atoms: _140  and  _141
REMARK   61  A    between atoms: _141  and  _142
REMARK   62  A    between atoms: _142  and  _143
REMARK   63  A    between atoms: _143  and  _144
REMARK   64  A    between atoms: _148  and  _150
REMARK   65  A    between atoms: _150  and  _151
REMARK   66  A    between atoms: _150  and  _153
REMARK   67  A    between atoms: _153  and  _154
REMARK   68  A    between atoms: _157  and  _159
REMARK   69  A    between atoms: _159  and  _160
REMARK   70  A    between atoms: _159  and  _162
REMARK   71  A    between atoms: _162  and  _163
REMARK   72  A    between atoms: _166  and  _168
REMARK   73  A    between atoms: _168  and  _169
REMARK   74  A    between atoms: _168  and  _171
REMARK   75  A    between atoms: _171  and  _172
REMARK   76  A    between atoms: _175  and  _177
REMARK   77  A    between atoms: _177  and  _178
REMARK   78  A    between atoms: _177  and  _180
REMARK   79  A    between atoms: _180  and  _181
REMARK   80  A    between atoms: _181  and  _182
REMARK   81  A    between atoms: _182  and  _183
REMARK   82  A    between atoms: _183  and  _184
REMARK   83  A    between atoms: _188  and  _190
REMARK   84  A    between atoms: _190  and  _191
REMARK   85  A    between atoms: _190  and  _193
REMARK   86  A    between atoms: _196  and  _198
REMARK   87  A    between atoms: _198  and  _199
REMARK   88  A    between atoms: _198  and  _201
REMARK   89  A    between atoms: _201  and  _202
REMARK   90  A    between atoms: _205  and  _207
REMARK   91  A    between atoms: _207  and  _208
REMARK   92  A    between atoms: _207  and  _210
REMARK   93  A    between atoms: _210  and  _211
REMARK   94  A    between atoms: _211  and  _212
REMARK   95  A    between atoms: _212  and  _213
REMARK   96  A    between atoms: _213  and  _214
REMARK   97  A    between atoms: _218  and  _220
REMARK   98  A    between atoms: _220  and  _221
REMARK   99  A    between atoms: _220  and  _223
REMARK  100  A    between atoms: _223  and  _224
REMARK  101  A    between atoms: _224  and  _225
REMARK  102  A    between atoms: _230  and  _232
REMARK  103  A    between atoms: _232  and  _233
REMARK  104  A    between atoms: _232  and  _235
REMARK  105  A    between atoms: _235  and  _236
REMARK  106  A    between atoms: _241  and  _243
REMARK  107  A    between atoms: _243  and  _244
REMARK  108  A    between atoms: _243  and  _246
REMARK  109  A    between atoms: _246  and  _247
REMARK  110  A    between atoms: _250  and  _252
REMARK  111  A    between atoms: _252  and  _253
REMARK  112  A    between atoms: _252  and  _255
REMARK  113  A    between atoms: _255  and  _256
REMARK  114  A    between atoms: _256  and  _257
REMARK  115  A    between atoms: _260  and  _262
REMARK  116  A    between atoms: _262  and  _263
REMARK  117  A    between atoms: _262  and  _265
REMARK  118  A    between atoms: _265  and  _266
REMARK  119  A    between atoms: _269  and  _271
REMARK  120  A    between atoms: _271  and  _272
REMARK  121  A    between atoms: _271  and  _274
REMARK  122  A    between atoms: _277  and  _279
REMARK  123  A    between atoms: _279  and  _280
REMARK  124  A    between atoms: _279  and  _282
REMARK  125  A    between atoms: _282  and  _283
REMARK  126  A    between atoms: _283  and  _284
REMARK  127  A    between atoms: _284  and  _285
REMARK  128  A    between atoms: _285  and  _286
REMARK  129  A    between atoms: _290  and  _292
REMARK  130  A    between atoms: _292  and  _293
REMARK  131  A    between atoms: _292  and  _295
REMARK  132  A    between atoms: _295  and  _296
REMARK  133  A    between atoms: _296  and  _297
REMARK  134  A    between atoms: _299  and  _301
REMARK  135  A    between atoms: _301  and  _302
REMARK  136  A    between atoms: _301  and  _304
REMARK  137  A    between atoms: _304  and  _305
REMARK  138  A    between atoms: _305  and  _306
REMARK  139  A    between atoms: _308  and  _310
REMARK  140  A    between atoms: _310  and  _311
REMARK  141  A    between atoms: _310  and  _313
REMARK  142  A    between atoms: _313  and  _314
REMARK  143  A    between atoms: _314  and  _315
REMARK  144  A    between atoms: _318  and  _320
REMARK  145  A    between atoms: _320  and  _321
REMARK  146  A    between atoms: _320  and  _323
REMARK  147  A    between atoms: _323  and  _324
REMARK  148  A    between atoms: _329  and  _330
REMARK  149  A    between atoms: _332  and  _334
REMARK  150  A    between atoms: _334  and  _335
REMARK  151  A    between atoms: _334  and  _337
REMARK  152  A    between atoms: _341  and  _342
REMARK  153  A    between atoms: _347  and  _349
REMARK  154  A    between atoms: _349  and  _350
REMARK  155  A    between atoms: _352  and  _354
REMARK  156  A    between atoms: _354  and  _355
REMARK  157  A    between atoms: _357  and  _359
REMARK  158  A    between atoms: _359  and  _360
REMARK  159  A    between atoms: _359  and  _362
REMARK  160  A    between atoms: _362  and  _363
REMARK  161  A    between atoms: _363  and  _364
REMARK  162  A    between atoms: _367  and  _369
REMARK  163  A    between atoms: _369  and  _370
REMARK  164  A    between atoms: _369  and  _372
REMARK  165  A    between atoms: _372  and  _373
REMARK  166  A    between atoms: _373  and  _374
REMARK  167  A    between atoms: _376  and  _378
REMARK  168  A    between atoms: _378  and  _379
REMARK  169  A    between atoms: _378  and  _381
REMARK  170  A    between atoms: _381  and  _382
REMARK  171  A    between atoms: _388  and  _390
REMARK  172  A    between atoms: _390  and  _391
REMARK  173  A    between atoms: _390  and  _393
REMARK  174  A    between atoms: _393  and  _394
REMARK  175  A    between atoms: _399  and  _400
REMARK  176  A    between atoms: _402  and  _404
REMARK  177  A    between atoms: _404  and  _405
REMARK  178  A    between atoms: _404  and  _407
REMARK  179  A    between atoms: _407  and  _408
REMARK  180  A    between atoms: _411  and  _413
REMARK  181  A    between atoms: _413  and  _414
REMARK  182  A    between atoms: _413  and  _416
REMARK  183  A    between atoms: _416  and  _417
REMARK  184  A    between atoms: _417  and  _418
REMARK  185  A    between atoms: _418  and  _419
REMARK  186  A    between atoms: _419  and  _420
REMARK  187  A    between atoms: _425  and  _426
REMARK  188  A    between atoms: _431  and  _433
REMARK  189  A    between atoms: _433  and  _434
REMARK  190  A    between atoms: _433  and  _436
REMARK  191  A    between atoms: _436  and  _437
REMARK  192  A    between atoms: _437  and  _438
REMARK  193  A    between atoms: _441  and  _443
REMARK  194  A    between atoms: _443  and  _444
REMARK  195  A    between atoms: _443  and  _446
REMARK  196  A    between atoms: _446  and  _447
REMARK  197  A    between atoms: _452  and  _454
REMARK  198  A    between atoms: _454  and  _455
REMARK  199  A    between atoms: _454  and  _457
REMARK  200  A    between atoms: _457  and  _458
REMARK  201  A    between atoms: _461  and  _463
REMARK  202  A    between atoms: _463  and  _464
REMARK  203  A    between atoms: _463  and  _466
REMARK  204  A    between atoms: _466  and  _467
REMARK  205  A    between atoms: _470  and  _472
REMARK  206  A    between atoms: _472  and  _473
REMARK  207  A    between atoms: _472  and  _475
REMARK  208  A    between atoms: _475  and  _476
REMARK  209  A    between atoms: _479  and  _481
REMARK  210  A    between atoms: _481  and  _482
REMARK  211  A    between atoms: _481  and  _484
REMARK  212  A    between atoms: _484  and  _485
REMARK  213  A    between atoms: _485  and  _486
REMARK  214  A    between atoms: _491  and  _493
REMARK  215  A    between atoms: _493  and  _494
REMARK  216  A    between atoms: _493  and  _496
REMARK  217  A    between atoms: _499  and  _501
REMARK  218  A    between atoms: _501  and  _502
REMARK  219  A    between atoms: _501  and  _504
REMARK  220  A    between atoms: _504  and  _505
REMARK  221  A    between atoms: _508  and  _510
REMARK  222  A    between atoms: _510  and  _511
REMARK  223  A    between atoms: _510  and  _513
REMARK  224  A    between atoms: _513  and  _514
REMARK  225  A    between atoms: _517  and  _519
REMARK  226  A    between atoms: _519  and  _520
REMARK  227  A    between atoms: _519  and  _522
REMARK  228  A    between atoms: _522  and  _523
REMARK  229  A    between atoms: _529  and  _531
REMARK  230  A    between atoms: _531  and  _532
REMARK  231  A    between atoms: _534  and  _536
REMARK  232  A    between atoms: _536  and  _537
REMARK  233  A    between atoms: _536  and  _539
REMARK  234  A    between atoms: _539  and  _540
REMARK  235  A    between atoms: _546  and  _548
REMARK  236  A    between atoms: _548  and  _549
REMARK  237  A    between atoms: _552  and  _554
REMARK  238  A    between atoms: _554  and  _555
REMARK  239  A    between atoms: _557  and  _559
REMARK  240  A    between atoms: _559  and  _560
REMARK  241  A    between atoms: _559  and  _562
REMARK  242  A    between atoms: _562  and  _563
REMARK  243  A    between atoms: _566  and  _568
REMARK  244  A    between atoms: _568  and  _569
REMARK  245  A    between atoms: _568  and  _571
REMARK  246  A    between atoms: _571  and  _572
REMARK  247  A    between atoms: _578  and  _580
REMARK  248  A    between atoms: _580  and  _581
REMARK  249  A    between atoms: _580  and  _583
REMARK  250  A    between atoms: _583  and  _584
REMARK  251  A    between atoms: _589  and  _590
REMARK                            x       y       z     vdW  Elec       q    Type
REMARK                         _______ _______ _______ _____ _____    ______ ____
ROOT
ATOM      1  O   HOH     1      17.337   8.092  -2.058  0.00  0.00    +0.000 OA
ENDROOT
TORSDOF 0
REMARK  Name = ../refined-set-2016/1xh5/1xh5_pocket.pdb
REMARK  251 active torsions:
REMARK  status: ('A' for Active; 'I' for Inactive)
REMARK    1  A    between atoms: _1  and  _3
REMARK    2  A    between atoms: _3  and  _4
REMARK    3  A    between atoms: _3  and  _6
REMARK    4  A    between atoms: _6  and  _7
REMARK    5  A    between atoms: _10  and  _12
REMARK    6  A    between atoms: _12  and  _13
REMARK    7  A    between atoms: _12  and  _15
REMARK    8  A    between atoms: _15  and  _16
REMARK    9  A    between atoms: _19  and  _21
REMARK   10  A    between atoms: _21  and  _22
REMARK   11  A    between atoms: _24  and  _26
REMARK   12  A    between atoms: _26  and  _27
REMARK   13  A    between atoms: _26  and  _29
REMARK   14  A    between atoms: _29  and  _30
REMARK   15  A    between atoms: _33  and  _35
REMARK   16  A    between atoms: _35  and  _36
REMARK   17  A    between atoms: _38  and  _40
REMARK   18  A    between atoms: _40  and  _41
REMARK   19  A    between atoms: _40  and  _43
REMARK   20  A    between atoms: _43  and  _44
REMARK   21  A    between atoms: _46  and  _48
REMARK   22  A    between atoms: _48  and  _49
REMARK   23  A    between atoms: _48  and  _51
REMARK   24  A    between atoms: _51  and  _52
REMARK   25  A    between atoms: _58  and  _60
REMARK   26  A    between atoms: _60  and  _61
REMARK   27  A    between atoms: _63  and  _65
REMARK   28  A    between atoms: _65  and  _66
REMARK   29  A    between atoms: _65  and  _68
REMARK   30  A    between atoms: _68  and  _69
REMARK   31  A    between atoms: _69  and  _70
REMARK   32  A    between atoms: _70  and  _71
REMARK   33  A    between atoms: _80  and  _82
REMARK   34  A    between atoms: _82  and  _83
REMARK   35  A    between atoms: _82  and  _85
REMARK   36  A    between atoms: _88  and  _90
REMARK   37  A    between atoms: _90  and  _91
REMARK   38  A    between atoms: _90  and  _93
REMARK   39  A    between atoms: _93  and  _94
REMARK   40  A    between atoms: _94  and  _95
REMARK   41  A    between atoms: _97  and  _99
REMARK   42  A    between atoms: _99  and  _100
REMARK   43  A    between atoms: _99  and  _102
REMARK   44  A    between atoms: _102  and  _103
REMARK   45  A    between atoms: _106  and  _108
REMARK   46  A    between atoms: _108  and  _109
REMARK   47  A    between atoms: _108  and  _111
REMARK   48  A    between atoms: _111  and  _112
REMARK   49  A    between atoms: _117  and  _118
REMARK   50  A    between atoms: _120  and  _122
REMARK   51  A    between atoms: _122  and  _123
REMARK   52  A    between atoms: _126  and  _128
REMARK   53  A    between atoms: _128  and  _129
REMARK   54  A    between atoms: _128  and  _131
REMARK   55  A    between atoms: _131  and  _132
REMARK   56  A    between atoms: _132  and  _133
REMARK   57  A    between atoms: _135  and  _137
REMARK   58  A    between atoms: _137  and  _138
REMARK   59  A    between atoms: _137  and  _140
REMARK   60  A    between atoms: _140  and  _141
REMARK   61  A    between atoms: _141  and  _142
REMARK   62  A    between atoms: _142  and  _143
REMARK   63  A    between atoms: _143  and  _144
REMARK   64  A    between atoms: _148  and  _150
REMARK   65  A    between atoms: _150  and  _151
REMARK   66  A    between atoms: _150  and  _153
REMARK   67  A    between atoms: _153  and  _154
REMARK   68  A    between atoms: _157  and  _159
REMARK   69  A    between atoms: _159  and  _160
REMARK   70  A    between atoms: _159  and  _162
REMARK   71  A    between atoms: _162  and  _163
REMARK   72  A    between atoms: _166  and  _168
REMARK   73  A    between atoms: _168  and  _169
REMARK   74  A    between atoms: _168  and  _171
REMARK   75  A    between atoms: _171  and  _172
REMARK   76  A    between atoms: _175  and  _177
REMARK   77  A    between atoms: _177  and  _178
REMARK   78  A    between atoms: _177  and  _180
REMARK   79  A    between atoms: _180  and  _181
REMARK   80  A    between atoms: _181  and  _182
REMARK   81  A    between atoms: _182  and  _183
REMARK   82  A    between atoms: _183  and  _184
REMARK   83  A    between atoms: _188  and  _190
REMARK   84  A    between atoms: _190  and  _191
REMARK   85  A    between atoms: _190  and  _193
REMARK   86  A    between atoms: _196  and  _198
REMARK   87  A    between atoms: _198  and  _199
REMARK   88  A    between atoms: _198  and  _201
REMARK   89  A    between atoms: _201  and  _202
REMARK   90  A    between atoms: _205  and  _207
REMARK   91  A    between atoms: _207  and  _208
REMARK   92  A    between atoms: _207  and  _210
REMARK   93  A    between atoms: _210  and  _211
REMARK   94  A    between atoms: _211  and  _212
REMARK   95  A    between atoms: _212  and  _213
REMARK   96  A    between atoms: _213  and  _214
REMARK   97  A    between atoms: _218  and  _220
REMARK   98  A    between atoms: _220  and  _221
REMARK   99  A    between atoms: _220  and  _223
REMARK  100  A    between atoms: _223  and  _224
REMARK  101  A    between atoms: _224  and  _225
REMARK  102  A    between atoms: _230  and  _232
REMARK  103  A    between atoms: _232  and  _233
REMARK  104  A    between atoms: _232  and  _235
REMARK  105  A    between atoms: _235  and  _236
REMARK  106  A    between atoms: _241  and  _243
REMARK  107  A    between atoms: _243  and  _244
REMARK  108  A    between atoms: _243  and  _246
REMARK  109  A    between atoms: _246  and  _247
REMARK  110  A    between atoms: _250  and  _252
REMARK  111  A    between atoms: _252  and  _253
REMARK  112  A    between atoms: _252  and  _255
REMARK  113  A    between atoms: _255  and  _256
REMARK  114  A    between atoms: _256  and  _257
REMARK  115  A    between atoms: _260  and  _262
REMARK  116  A    between atoms: _262  and  _263
REMARK  117  A    between atoms: _262  and  _265
REMARK  118  A    between atoms: _265  and  _266
REMARK  119  A    between atoms: _269  and  _271
REMARK  120  A    between atoms: _271  and  _272
REMARK  121  A    between atoms: _271  and  _274
REMARK  122  A    between atoms: _277  and  _279
REMARK  123  A    between atoms: _279  and  _280
REMARK  124  A    between atoms: _279  and  _282
REMARK  125  A    between atoms: _282  and  _283
REMARK  126  A    between atoms: _283  and  _284
REMARK  127  A    between atoms: _284  and  _285
REMARK  128  A    between atoms: _285  and  _286
REMARK  129  A    between atoms: _290  and  _292
REMARK  130  A    between atoms: _292  and  _293
REMARK  131  A    between atoms: _292  and  _295
REMARK  132  A    between atoms: _295  and  _296
REMARK  133  A    between atoms: _296  and  _297
REMARK  134  A    between atoms: _299  and  _301
REMARK  135  A    between atoms: _301  and  _302
REMARK  136  A    between atoms: _301  and  _304
REMARK  137  A    between atoms: _304  and  _305
REMARK  138  A    between atoms: _305  and  _306
REMARK  139  A    between atoms: _308  and  _310
REMARK  140  A    between atoms: _310  and  _311
REMARK  141  A    between atoms: _310  and  _313
REMARK  142  A    between atoms: _313  and  _314
REMARK  143  A    between atoms: _314  and  _315
REMARK  144  A    between atoms: _318  and  _320
REMARK  145  A    between atoms: _320  and  _321
REMARK  146  A    between atoms: _320  and  _323
REMARK  147  A    between atoms: _323  and  _324
REMARK  148  A    between atoms: _329  and  _330
REMARK  149  A    between atoms: _332  and  _334
REMARK  150  A    between atoms: _334  and  _335
REMARK  151  A    between atoms: _334  and  _337
REMARK  152  A    between atoms: _341  and  _342
REMARK  153  A    between atoms: _347  and  _349
REMARK  154  A    between atoms: _349  and  _350
REMARK  155  A    between atoms: _352  and  _354
REMARK  156  A    between atoms: _354  and  _355
REMARK  157  A    between atoms: _357  and  _359
REMARK  158  A    between atoms: _359  and  _360
REMARK  159  A    between atoms: _359  and  _362
REMARK  160  A    between atoms: _362  and  _363
REMARK  161  A    between atoms: _363  and  _364
REMARK  162  A    between atoms: _367  and  _369
REMARK  163  A    between atoms: _369  and  _370
REMARK  164  A    between atoms: _369  and  _372
REMARK  165  A    between atoms: _372  and  _373
REMARK  166  A    between atoms: _373  and  _374
REMARK  167  A    between atoms: _376  and  _378
REMARK  168  A    between atoms: _378  and  _379
REMARK  169  A    between atoms: _378  and  _381
REMARK  170  A    between atoms: _381  and  _382
REMARK  171  A    between atoms: _388  and  _390
REMARK  172  A    between atoms: _390  and  _391
REMARK  173  A    between atoms: _390  and  _393
REMARK  174  A    between atoms: _393  and  _394
REMARK  175  A    between atoms: _399  and  _400
REMARK  176  A    between atoms: _402  and  _404
REMARK  177  A    between atoms: _404  and  _405
REMARK  178  A    between atoms: _404  and  _407
REMARK  179  A    between atoms: _407  and  _408
REMARK  180  A    between atoms: _411  and  _413
REMARK  181  A    between atoms: _413  and  _414
REMARK  182  A    between atoms: _413  and  _416
REMARK  183  A    between atoms: _416  and  _417
REMARK  184  A    between atoms: _417  and  _418
REMARK  185  A    between atoms: _418  and  _419
REMARK  186  A    between atoms: _419  and  _420
REMARK  187  A    between atoms: _425  and  _426
REMARK  188  A    between atoms: _431  and  _433
REMARK  189  A    between atoms: _433  and  _434
REMARK  190  A    between atoms: _433  and  _436
REMARK  191  A    between atoms: _436  and  _437
REMARK  192  A    between atoms: _437  and  _438
REMARK  193  A    between atoms: _441  and  _443
REMARK  194  A    between atoms: _443  and  _444
REMARK  195  A    between atoms: _443  and  _446
REMARK  196  A    between atoms: _446  and  _447
REMARK  197  A    between atoms: _452  and  _454
REMARK  198  A    between atoms: _454  and  _455
REMARK  199  A    between atoms: _454  and  _457
REMARK  200  A    between atoms: _457  and  _458
REMARK  201  A    between atoms: _461  and  _463
REMARK  202  A    between atoms: _463  and  _464
REMARK  203  A    between atoms: _463  and  _466
REMARK  204  A    between atoms: _466  and  _467
REMARK  205  A    between atoms: _470  and  _472
REMARK  206  A    between atoms: _472  and  _473
REMARK  207  A    between atoms: _472  and  _475
REMARK  208  A    between atoms: _475  and  _476
REMARK  209  A    between atoms: _479  and  _481
REMARK  210  A    between atoms: _481  and  _482
REMARK  211  A    between atoms: _481  and  _484
REMARK  212  A    between atoms: _484  and  _485
REMARK  213  A    between atoms: _485  and  _486
REMARK  214  A    between atoms: _491  and  _493
REMARK  215  A    between atoms: _493  and  _494
REMARK  216  A    between atoms: _493  and  _496
REMARK  217  A    between atoms: _499  and  _501
REMARK  218  A    between atoms: _501  and  _502
REMARK  219  A    between atoms: _501  and  _504
REMARK  220  A    between atoms: _504  and  _505
REMARK  221  A    between atoms: _508  and  _510
REMARK  222  A    between atoms: _510  and  _511
REMARK  223  A    between atoms: _510  and  _513
REMARK  224  A    between atoms: _513  and  _514
REMARK  225  A    between atoms: _517  and  _519
REMARK  226  A    between atoms: _519  and  _520
REMARK  227  A    between atoms: _519  and  _522
REMARK  228  A    between atoms: _522  and  _523
REMARK  229  A    between atoms: _529  and  _531
REMARK  230  A    between atoms: _531  and  _532
REMARK  231  A    between atoms: _534  and  _536
REMARK  232  A    between atoms: _536  and  _537
REMARK  233  A    between atoms: _536  and  _539
REMARK  234  A    between atoms: _539  and  _540
REMARK  235  A    between atoms: _546  and  _548
REMARK  236  A    between atoms: _548  and  _549
REMARK  237  A    between atoms: _552  and  _554
REMARK  238  A    between atoms: _554  and  _555
REMARK  239  A    between atoms: _557  and  _559
REMARK  240  A    between atoms: _559  and  _560
REMARK  241  A    between atoms: _559  and  _562
REMARK  242  A    between atoms: _562  and  _563
REMARK  243  A    between atoms: _566  and  _568
REMARK  244  A    between atoms: _568  and  _569
REMARK  245  A    between atoms: _568  and  _571
REMARK  246  A    between atoms: _571  and  _572
REMARK  247  A    between atoms: _578  and  _580
REMARK  248  A    between atoms: _580  and  _581
REMARK  249  A    between atoms: _580  and  _583
REMARK  250  A    between atoms: _583  and  _584
REMARK  251  A    between atoms: _589  and  _590
REMARK                            x       y       z     vdW  Elec       q    Type
REMARK                         _______ _______ _______ _____ _____    ______ ____
ROOT
ATOM      1  O   HOH     1      13.265  12.127  -5.831  0.00  0.00    +0.000 OA
ENDROOT
TORSDOF 0
