REMARK  Name = ../refined-set-2016/1uz1/1uz1_pocket.pdb
REMARK  143 active torsions:
REMARK  status: ('A' for Active; 'I' for Inactive)
REMARK    1  A    between atoms: _1  and  _3
REMARK    2  A    between atoms: _3  and  _4
REMARK    3  A    between atoms: _7  and  _9
REMARK    4  A    between atoms: _9  and  _10
REMARK    5  A    between atoms: _9  and  _12
REMARK    6  A    between atoms: _12  and  _13
REMARK    7  A    between atoms: _16  and  _18
REMARK    8  A    between atoms: _18  and  _19
REMARK    9  A    between atoms: _22  and  _24
REMARK   10  A    between atoms: _24  and  _25
REMARK   11  A    between atoms: _24  and  _27
REMARK   12  A    between atoms: _27  and  _28
REMARK   13  A    between atoms: _28  and  _29
REMARK   14  A    between atoms: _34  and  _36
REMARK   15  A    between atoms: _36  and  _37
REMARK   16  A    between atoms: _36  and  _39
REMARK   17  A    between atoms: _39  and  _40
REMARK   18  A    between atoms: _40  and  _41
REMARK   19  A    between atoms: _41  and  _42
REMARK   20  A    between atoms: _51  and  _53
REMARK   21  A    between atoms: _53  and  _54
REMARK   22  A    between atoms: _53  and  _56
REMARK   23  A    between atoms: _56  and  _57
REMARK   24  A    between atoms: _60  and  _62
REMARK   25  A    between atoms: _62  and  _63
REMARK   26  A    between atoms: _62  and  _65
REMARK   27  A    between atoms: _65  and  _66
REMARK   28  A    between atoms: _71  and  _73
REMARK   29  A    between atoms: _73  and  _74
REMARK   30  A    between atoms: _73  and  _76
REMARK   31  A    between atoms: _76  and  _77
REMARK   32  A    between atoms: _87  and  _89
REMARK   33  A    between atoms: _89  and  _90
REMARK   34  A    between atoms: _89  and  _92
REMARK   35  A    between atoms: _92  and  _93
REMARK   36  A    between atoms: _98  and  _100
REMARK   37  A    between atoms: _100  and  _101
REMARK   38  A    between atoms: _100  and  _103
REMARK   39  A    between atoms: _103  and  _104
REMARK   40  A    between atoms: _104  and  _105
REMARK   41  A    between atoms: _108  and  _110
REMARK   42  A    between atoms: _110  and  _111
REMARK   43  A    between atoms: _110  and  _113
REMARK   44  A    between atoms: _116  and  _118
REMARK   45  A    between atoms: _118  and  _119
REMARK   46  A    between atoms: _118  and  _121
REMARK   47  A    between atoms: _121  and  _122
REMARK   48  A    between atoms: _127  and  _129
REMARK   49  A    between atoms: _129  and  _130
REMARK   50  A    between atoms: _129  and  _132
REMARK   51  A    between atoms: _135  and  _137
REMARK   52  A    between atoms: _137  and  _138
REMARK   53  A    between atoms: _137  and  _140
REMARK   54  A    between atoms: _140  and  _141
REMARK   55  A    between atoms: _146  and  _148
REMARK   56  A    between atoms: _148  and  _149
REMARK   57  A    between atoms: _148  and  _151
REMARK   58  A    between atoms: _151  and  _152
REMARK   59  A    between atoms: _157  and  _159
REMARK   60  A    between atoms: _159  and  _160
REMARK   61  A    between atoms: _159  and  _162
REMARK   62  A    between atoms: _162  and  _163
REMARK   63  A    between atoms: _168  and  _170
REMARK   64  A    between atoms: _170  and  _171
REMARK   65  A    between atoms: _170  and  _173
REMARK   66  A    between atoms: _173  and  _174
REMARK   67  A    between atoms: _179  and  _180
REMARK   68  A    between atoms: _182  and  _184
REMARK   69  A    between atoms: _184  and  _185
REMARK   70  A    between atoms: _184  and  _187
REMARK   71  A    between atoms: _187  and  _188
REMARK   72  A    between atoms: _193  and  _194
REMARK   73  A    between atoms: _196  and  _198
REMARK   74  A    between atoms: _198  and  _199
REMARK   75  A    between atoms: _198  and  _201
REMARK   76  A    between atoms: _201  and  _202
REMARK   77  A    between atoms: _202  and  _203
REMARK   78  A    between atoms: _205  and  _207
REMARK   79  A    between atoms: _207  and  _208
REMARK   80  A    between atoms: _207  and  _210
REMARK   81  A    between atoms: _210  and  _211
REMARK   82  A    between atoms: _221  and  _223
REMARK   83  A    between atoms: _223  and  _224
REMARK   84  A    between atoms: _223  and  _226
REMARK   85  A    between atoms: _226  and  _227
REMARK   86  A    between atoms: _230  and  _232
REMARK   87  A    between atoms: _232  and  _233
REMARK   88  A    between atoms: _232  and  _235
REMARK   89  A    between atoms: _235  and  _236
REMARK   90  A    between atoms: _236  and  _237
REMARK   91  A    between atoms: _240  and  _242
REMARK   92  A    between atoms: _242  and  _243
REMARK   93  A    between atoms: _242  and  _245
REMARK   94  A    between atoms: _245  and  _246
REMARK   95  A    between atoms: _251  and  _253
REMARK   96  A    between atoms: _253  and  _254
REMARK   97  A    between atoms: _256  and  _258
REMARK   98  A    between atoms: _258  and  _259
REMARK   99  A    between atoms: _262  and  _264
REMARK  100  A    between atoms: _264  and  _265
REMARK  101  A    between atoms: _268  and  _270
REMARK  102  A    between atoms: _270  and  _271
REMARK  103  A    between atoms: _270  and  _273
REMARK  104  A    between atoms: _273  and  _274
REMARK  105  A    between atoms: _284  and  _286
REMARK  106  A    between atoms: _286  and  _287
REMARK  107  A    between atoms: _286  and  _289
REMARK  108  A    between atoms: _289  and  _290
REMARK  109  A    between atoms: _292  and  _294
REMARK  110  A    between atoms: _294  and  _295
REMARK  111  A    between atoms: _294  and  _297
REMARK  112  A    between atoms: _297  and  _298
REMARK  113  A    between atoms: _303  and  _305
REMARK  114  A    between atoms: _305  and  _306
REMARK  115  A    between atoms: _305  and  _308
REMARK  116  A    between atoms: _308  and  _309
REMARK  117  A    between atoms: _315  and  _317
REMARK  118  A    between atoms: _317  and  _318
REMARK  119  A    between atoms: _317  and  _320
REMARK  120  A    between atoms: _320  and  _321
REMARK  121  A    between atoms: _321  and  _322
REMARK  122  A    between atoms: _325  and  _327
REMARK  123  A    between atoms: _327  and  _328
REMARK  124  A    between atoms: _327  and  _330
REMARK  125  A    between atoms: _330  and  _331
REMARK  126  A    between atoms: _341  and  _343
REMARK  127  A    between atoms: _343  and  _344
REMARK  128  A    between atoms: _347  and  _349
REMARK  129  A    between atoms: _349  and  _350
REMARK  130  A    between atoms: _349  and  _352
REMARK  131  A    between atoms: _352  and  _353
REMARK  132  A    between atoms: _353  and  _354
REMARK  133  A    between atoms: _357  and  _359
REMARK  134  A    between atoms: _359  and  _360
REMARK  135  A    between atoms: _359  and  _362
REMARK  136  A    between atoms: _362  and  _363
REMARK  137  A    between atoms: _363  and  _364
REMARK  138  A    between atoms: _364  and  _365
REMARK  139  A    between atoms: _365  and  _366
REMARK  140  A    between atoms: _370  and  _372
REMARK  141  A    between atoms: _372  and  _373
REMARK  142  A    between atoms: _372  and  _375
REMARK  143  A    between atoms: _375  and  _376
REMARK                            x       y       z     vdW  Elec       q    Type
REMARK                         _______ _______ _______ _____ _____    ______ ____
ROOT
ATOM      1  CA  THR A   2      -1.646  18.275   4.722  0.00  0.00    +0.176 C 
ENDROOT
BRANCH   1   4
ATOM      2  C   ALA A   1      -3.509  18.982   6.204  0.00  0.00    +0.238 C 
ATOM      3  O   ALA A   1      -4.300  18.119   5.800  0.00  0.00    -0.274 OA
ATOM      4  N   THR A   2      -2.292  19.191   5.686  0.00  0.00    -0.295 N 
ATOM      5  H   THR A   2      -1.773  20.044   5.978  0.00  0.00    +0.150 HD
BRANCH   2   6
ATOM      6  CA  ALA A   1      -3.899  19.888   7.367  0.00  0.00    +0.145 C 
ATOM      7  CB  ALA A   1      -3.509  19.245   8.700  0.00  0.00    +0.028 C 
BRANCH   6   8
ATOM      8  N   ALA A   1      -5.327  20.174   7.331  0.00  0.00    -0.238 NA
ATOM      9  H   ALA A   1      -6.004  19.391   7.224  0.00  0.00    +0.142 HD
ENDBRANCH   6   8
ENDBRANCH   2   6
ENDBRANCH   1   4
BRANCH   1  10
ATOM     10  C   THR A   2      -0.172  18.068   5.099  0.00  0.00    +0.243 C 
ATOM     11  O   THR A   2       0.310  18.610   6.117  0.00  0.00    -0.273 OA
ATOM     12  N   ALA A   3       0.546  17.326   4.250  0.00  0.00    -0.298 N 
ATOM     13  H   ALA A   3       0.047  16.825   3.487  0.00  0.00    +0.150 HD
BRANCH  12  14
ATOM     14  CA  ALA A   3       2.026  17.181   4.343  0.00  0.00    +0.137 C 
ATOM     15  CB  ALA A   3       2.392  15.908   5.057  0.00  0.00    +0.030 C 
BRANCH  14  16
ATOM     16  C   ALA A   3       2.604  17.168   2.932  0.00  0.00    +0.227 C 
ATOM     17  O   ALA A   3       1.961  16.644   2.021  0.00  0.00    -0.286 OA
ENDBRANCH  14  16
ENDBRANCH  12  14
ENDBRANCH   1  10
BRANCH   1  18
ATOM     18  CB  THR A   2      -1.668  18.870   3.278  0.00  0.00    +0.137 C 
ATOM     19  CG2 THR A   2      -3.120  19.105   2.718  0.00  0.00    +0.034 C 
BRANCH  18  20
ATOM     20  OG1 THR A   2      -1.083  20.170   3.299  0.00  0.00    -0.382 OA
ATOM     21  HG1 THR A   2      -0.148  20.105   3.618  0.00  0.00    +0.210 HD
ENDBRANCH  18  20
ENDBRANCH   1  18
TORSDOF 8
REMARK  Name = ../refined-set-2016/1uz1/1uz1_pocket.pdb
REMARK  143 active torsions:
REMARK  status: ('A' for Active; 'I' for Inactive)
REMARK    1  A    between atoms: _1  and  _3
REMARK    2  A    between atoms: _3  and  _4
REMARK    3  A    between atoms: _7  and  _9
REMARK    4  A    between atoms: _9  and  _10
REMARK    5  A    between atoms: _9  and  _12
REMARK    6  A    between atoms: _12  and  _13
REMARK    7  A    between atoms: _16  and  _18
REMARK    8  A    between atoms: _18  and  _19
REMARK    9  A    between atoms: _22  and  _24
REMARK   10  A    between atoms: _24  and  _25
REMARK   11  A    between atoms: _24  and  _27
REMARK   12  A    between atoms: _27  and  _28
REMARK   13  A    between atoms: _28  and  _29
REMARK   14  A    between atoms: _34  and  _36
REMARK   15  A    between atoms: _36  and  _37
REMARK   16  A    between atoms: _36  and  _39
REMARK   17  A    between atoms: _39  and  _40
REMARK   18  A    between atoms: _40  and  _41
REMARK   19  A    between atoms: _41  and  _42
REMARK   20  A    between atoms: _51  and  _53
REMARK   21  A    between atoms: _53  and  _54
REMARK   22  A    between atoms: _53  and  _56
REMARK   23  A    between atoms: _56  and  _57
REMARK   24  A    between atoms: _60  and  _62
REMARK   25  A    between atoms: _62  and  _63
REMARK   26  A    between atoms: _62  and  _65
REMARK   27  A    between atoms: _65  and  _66
REMARK   28  A    between atoms: _71  and  _73
REMARK   29  A    between atoms: _73  and  _74
REMARK   30  A    between atoms: _73  and  _76
REMARK   31  A    between atoms: _76  and  _77
REMARK   32  A    between atoms: _87  and  _89
REMARK   33  A    between atoms: _89  and  _90
REMARK   34  A    between atoms: _89  and  _92
REMARK   35  A    between atoms: _92  and  _93
REMARK   36  A    between atoms: _98  and  _100
REMARK   37  A    between atoms: _100  and  _101
REMARK   38  A    between atoms: _100  and  _103
REMARK   39  A    between atoms: _103  and  _104
REMARK   40  A    between atoms: _104  and  _105
REMARK   41  A    between atoms: _108  and  _110
REMARK   42  A    between atoms: _110  and  _111
REMARK   43  A    between atoms: _110  and  _113
REMARK   44  A    between atoms: _116  and  _118
REMARK   45  A    between atoms: _118  and  _119
REMARK   46  A    between atoms: _118  and  _121
REMARK   47  A    between atoms: _121  and  _122
REMARK   48  A    between atoms: _127  and  _129
REMARK   49  A    between atoms: _129  and  _130
REMARK   50  A    between atoms: _129  and  _132
REMARK   51  A    between atoms: _135  and  _137
REMARK   52  A    between atoms: _137  and  _138
REMARK   53  A    between atoms: _137  and  _140
REMARK   54  A    between atoms: _140  and  _141
REMARK   55  A    between atoms: _146  and  _148
REMARK   56  A    between atoms: _148  and  _149
REMARK   57  A    between atoms: _148  and  _151
REMARK   58  A    between atoms: _151  and  _152
REMARK   59  A    between atoms: _157  and  _159
REMARK   60  A    between atoms: _159  and  _160
REMARK   61  A    between atoms: _159  and  _162
REMARK   62  A    between atoms: _162  and  _163
REMARK   63  A    between atoms: _168  and  _170
REMARK   64  A    between atoms: _170  and  _171
REMARK   65  A    between atoms: _170  and  _173
REMARK   66  A    between atoms: _173  and  _174
REMARK   67  A    between atoms: _179  and  _180
REMARK   68  A    between atoms: _182  and  _184
REMARK   69  A    between atoms: _184  and  _185
REMARK   70  A    between atoms: _184  and  _187
REMARK   71  A    between atoms: _187  and  _188
REMARK   72  A    between atoms: _193  and  _194
REMARK   73  A    between atoms: _196  and  _198
REMARK   74  A    between atoms: _198  and  _199
REMARK   75  A    between atoms: _198  and  _201
REMARK   76  A    between atoms: _201  and  _202
REMARK   77  A    between atoms: _202  and  _203
REMARK   78  A    between atoms: _205  and  _207
REMARK   79  A    between atoms: _207  and  _208
REMARK   80  A    between atoms: _207  and  _210
REMARK   81  A    between atoms: _210  and  _211
REMARK   82  A    between atoms: _221  and  _223
REMARK   83  A    between atoms: _223  and  _224
REMARK   84  A    between atoms: _223  and  _226
REMARK   85  A    between atoms: _226  and  _227
REMARK   86  A    between atoms: _230  and  _232
REMARK   87  A    between atoms: _232  and  _233
REMARK   88  A    between atoms: _232  and  _235
REMARK   89  A    between atoms: _235  and  _236
REMARK   90  A    between atoms: _236  and  _237
REMARK   91  A    between atoms: _240  and  _242
REMARK   92  A    between atoms: _242  and  _243
REMARK   93  A    between atoms: _242  and  _245
REMARK   94  A    between atoms: _245  and  _246
REMARK   95  A    between atoms: _251  and  _253
REMARK   96  A    between atoms: _253  and  _254
REMARK   97  A    between atoms: _256  and  _258
REMARK   98  A    between atoms: _258  and  _259
REMARK   99  A    between atoms: _262  and  _264
REMARK  100  A    between atoms: _264  and  _265
REMARK  101  A    between atoms: _268  and  _270
REMARK  102  A    between atoms: _270  and  _271
REMARK  103  A    between atoms: _270  and  _273
REMARK  104  A    between atoms: _273  and  _274
REMARK  105  A    between atoms: _284  and  _286
REMARK  106  A    between atoms: _286  and  _287
REMARK  107  A    between atoms: _286  and  _289
REMARK  108  A    between atoms: _289  and  _290
REMARK  109  A    between atoms: _292  and  _294
REMARK  110  A    between atoms: _294  and  _295
REMARK  111  A    between atoms: _294  and  _297
REMARK  112  A    between atoms: _297  and  _298
REMARK  113  A    between atoms: _303  and  _305
REMARK  114  A    between atoms: _305  and  _306
REMARK  115  A    between atoms: _305  and  _308
REMARK  116  A    between atoms: _308  and  _309
REMARK  117  A    between atoms: _315  and  _317
REMARK  118  A    between atoms: _317  and  _318
REMARK  119  A    between atoms: _317  and  _320
REMARK  120  A    between atoms: _320  and  _321
REMARK  121  A    between atoms: _321  and  _322
REMARK  122  A    between atoms: _325  and  _327
REMARK  123  A    between atoms: _327  and  _328
REMARK  124  A    between atoms: _327  and  _330
REMARK  125  A    between atoms: _330  and  _331
REMARK  126  A    between atoms: _341  and  _343
REMARK  127  A    between atoms: _343  and  _344
REMARK  128  A    between atoms: _347  and  _349
REMARK  129  A    between atoms: _349  and  _350
REMARK  130  A    between atoms: _349  and  _352
REMARK  131  A    between atoms: _352  and  _353
REMARK  132  A    between atoms: _353  and  _354
REMARK  133  A    between atoms: _357  and  _359
REMARK  134  A    between atoms: _359  and  _360
REMARK  135  A    between atoms: _359  and  _362
REMARK  136  A    between atoms: _362  and  _363
REMARK  137  A    between atoms: _363  and  _364
REMARK  138  A    between atoms: _364  and  _365
REMARK  139  A    between atoms: _365  and  _366
REMARK  140  A    between atoms: _370  and  _372
REMARK  141  A    between atoms: _372  and  _373
REMARK  142  A    between atoms: _372  and  _375
REMARK  143  A    between atoms: _375  and  _376
REMARK                            x       y       z     vdW  Elec       q    Type
REMARK                         _______ _______ _______ _____ _____    ______ ____
ROOT
ATOM      1  CB  GLN A   1       0.820  13.122   1.831  0.00  0.00    +0.035 C 
ENDROOT
BRANCH   1   2
ATOM      2  CA  GLN A   1       1.637  13.207   0.555  0.00  0.00    +0.134 C 
BRANCH   2   3
ATOM      3  N   GLN A   1       2.929  13.834   0.817  0.00  0.00    -0.239 NA
ATOM      4  H   GLN A   1       3.069  14.395   1.681  0.00  0.00    +0.142 HD
ENDBRANCH   2   3
BRANCH   2   5
ATOM      5  C   GLN A   1       0.817  13.875  -0.553  0.00  0.00    +0.224 C 
ATOM      6  O   GLN A   1      -0.039  13.215  -1.140  0.00  0.00    -0.287 OA
ENDBRANCH   2   5
ENDBRANCH   1   2
BRANCH   1   7
ATOM      7  CG  GLN A   1       1.560  12.404   2.904  0.00  0.00    +0.087 C 
BRANCH   7   8
ATOM      8  CD  GLN A   1       0.733  12.185   4.136  0.00  0.00    +0.219 C 
ATOM      9  OE1 GLN A   1       0.921  12.882   5.128  0.00  0.00    -0.275 OA
ATOM     10  NE2 GLN A   1      -0.128  11.170   4.112  0.00  0.00    -0.329 N 
ATOM     11 HE21 GLN A   1      -0.680  10.936   4.962  0.00  0.00    +0.145 HD
ATOM     12 HE22 GLN A   1      -0.249  10.611   3.243  0.00  0.00    +0.145 HD
ENDBRANCH   7   8
ENDBRANCH   1   7
TORSDOF 5
REMARK  Name = ../refined-set-2016/1uz1/1uz1_pocket.pdb
REMARK  143 active torsions:
REMARK  status: ('A' for Active; 'I' for Inactive)
REMARK    1  A    between atoms: _1  and  _3
REMARK    2  A    between atoms: _3  and  _4
REMARK    3  A    between atoms: _7  and  _9
REMARK    4  A    between atoms: _9  and  _10
REMARK    5  A    between atoms: _9  and  _12
REMARK    6  A    between atoms: _12  and  _13
REMARK    7  A    between atoms: _16  and  _18
REMARK    8  A    between atoms: _18  and  _19
REMARK    9  A    between atoms: _22  and  _24
REMARK   10  A    between atoms: _24  and  _25
REMARK   11  A    between atoms: _24  and  _27
REMARK   12  A    between atoms: _27  and  _28
REMARK   13  A    between atoms: _28  and  _29
REMARK   14  A    between atoms: _34  and  _36
REMARK   15  A    between atoms: _36  and  _37
REMARK   16  A    between atoms: _36  and  _39
REMARK   17  A    between atoms: _39  and  _40
REMARK   18  A    between atoms: _40  and  _41
REMARK   19  A    between atoms: _41  and  _42
REMARK   20  A    between atoms: _51  and  _53
REMARK   21  A    between atoms: _53  and  _54
REMARK   22  A    between atoms: _53  and  _56
REMARK   23  A    between atoms: _56  and  _57
REMARK   24  A    between atoms: _60  and  _62
REMARK   25  A    between atoms: _62  and  _63
REMARK   26  A    between atoms: _62  and  _65
REMARK   27  A    between atoms: _65  and  _66
REMARK   28  A    between atoms: _71  and  _73
REMARK   29  A    between atoms: _73  and  _74
REMARK   30  A    between atoms: _73  and  _76
REMARK   31  A    between atoms: _76  and  _77
REMARK   32  A    between atoms: _87  and  _89
REMARK   33  A    between atoms: _89  and  _90
REMARK   34  A    between atoms: _89  and  _92
REMARK   35  A    between atoms: _92  and  _93
REMARK   36  A    between atoms: _98  and  _100
REMARK   37  A    between atoms: _100  and  _101
REMARK   38  A    between atoms: _100  and  _103
REMARK   39  A    between atoms: _103  and  _104
REMARK   40  A    between atoms: _104  and  _105
REMARK   41  A    between atoms: _108  and  _110
REMARK   42  A    between atoms: _110  and  _111
REMARK   43  A    between atoms: _110  and  _113
REMARK   44  A    between atoms: _116  and  _118
REMARK   45  A    between atoms: _118  and  _119
REMARK   46  A    between atoms: _118  and  _121
REMARK   47  A    between atoms: _121  and  _122
REMARK   48  A    between atoms: _127  and  _129
REMARK   49  A    between atoms: _129  and  _130
REMARK   50  A    between atoms: _129  and  _132
REMARK   51  A    between atoms: _135  and  _137
REMARK   52  A    between atoms: _137  and  _138
REMARK   53  A    between atoms: _137  and  _140
REMARK   54  A    between atoms: _140  and  _141
REMARK   55  A    between atoms: _146  and  _148
REMARK   56  A    between atoms: _148  and  _149
REMARK   57  A    between atoms: _148  and  _151
REMARK   58  A    between atoms: _151  and  _152
REMARK   59  A    between atoms: _157  and  _159
REMARK   60  A    between atoms: _159  and  _160
REMARK   61  A    between atoms: _159  and  _162
REMARK   62  A    between atoms: _162  and  _163
REMARK   63  A    between atoms: _168  and  _170
REMARK   64  A    between atoms: _170  and  _171
REMARK   65  A    between atoms: _170  and  _173
REMARK   66  A    between atoms: _173  and  _174
REMARK   67  A    between atoms: _179  and  _180
REMARK   68  A    between atoms: _182  and  _184
REMARK   69  A    between atoms: _184  and  _185
REMARK   70  A    between atoms: _184  and  _187
REMARK   71  A    between atoms: _187  and  _188
REMARK   72  A    between atoms: _193  and  _194
REMARK   73  A    between atoms: _196  and  _198
REMARK   74  A    between atoms: _198  and  _199
REMARK   75  A    between atoms: _198  and  _201
REMARK   76  A    between atoms: _201  and  _202
REMARK   77  A    between atoms: _202  and  _203
REMARK   78  A    between atoms: _205  and  _207
REMARK   79  A    between atoms: _207  and  _208
REMARK   80  A    between atoms: _207  and  _210
REMARK   81  A    between atoms: _210  and  _211
REMARK   82  A    between atoms: _221  and  _223
REMARK   83  A    between atoms: _223  and  _224
REMARK   84  A    between atoms: _223  and  _226
REMARK   85  A    between atoms: _226  and  _227
REMARK   86  A    between atoms: _230  and  _232
REMARK   87  A    between atoms: _232  and  _233
REMARK   88  A    between atoms: _232  and  _235
REMARK   89  A    between atoms: _235  and  _236
REMARK   90  A    between atoms: _236  and  _237
REMARK   91  A    between atoms: _240  and  _242
REMARK   92  A    between atoms: _242  and  _243
REMARK   93  A    between atoms: _242  and  _245
REMARK   94  A    between atoms: _245  and  _246
REMARK   95  A    between atoms: _251  and  _253
REMARK   96  A    between atoms: _253  and  _254
REMARK   97  A    between atoms: _256  and  _258
REMARK   98  A    between atoms: _258  and  _259
REMARK   99  A    between atoms: _262  and  _264
REMARK  100  A    between atoms: _264  and  _265
REMARK  101  A    between atoms: _268  and  _270
REMARK  102  A    between atoms: _270  and  _271
REMARK  103  A    between atoms: _270  and  _273
REMARK  104  A    between atoms: _273  and  _274
REMARK  105  A    between atoms: _284  and  _286
REMARK  106  A    between atoms: _286  and  _287
REMARK  107  A    between atoms: _286  and  _289
REMARK  108  A    between atoms: _289  and  _290
REMARK  109  A    between atoms: _292  and  _294
REMARK  110  A    between atoms: _294  and  _295
REMARK  111  A    between atoms: _294  and  _297
REMARK  112  A    between atoms: _297  and  _298
REMARK  113  A    between atoms: _303  and  _305
REMARK  114  A    between atoms: _305  and  _306
REMARK  115  A    between atoms: _305  and  _308
REMARK  116  A    between atoms: _308  and  _309
REMARK  117  A    between atoms: _315  and  _317
REMARK  118  A    between atoms: _317  and  _318
REMARK  119  A    between atoms: _317  and  _320
REMARK  120  A    between atoms: _320  and  _321
REMARK  121  A    between atoms: _321  and  _322
REMARK  122  A    between atoms: _325  and  _327
REMARK  123  A    between atoms: _327  and  _328
REMARK  124  A    between atoms: _327  and  _330
REMARK  125  A    between atoms: _330  and  _331
REMARK  126  A    between atoms: _341  and  _343
REMARK  127  A    between atoms: _343  and  _344
REMARK  128  A    between atoms: _347  and  _349
REMARK  129  A    between atoms: _349  and  _350
REMARK  130  A    between atoms: _349  and  _352
REMARK  131  A    between atoms: _352  and  _353
REMARK  132  A    between atoms: _353  and  _354
REMARK  133  A    between atoms: _357  and  _359
REMARK  134  A    between atoms: _359  and  _360
REMARK  135  A    between atoms: _359  and  _362
REMARK  136  A    between atoms: _362  and  _363
REMARK  137  A    between atoms: _363  and  _364
REMARK  138  A    between atoms: _364  and  _365
REMARK  139  A    between atoms: _365  and  _366
REMARK  140  A    between atoms: _370  and  _372
REMARK  141  A    between atoms: _372  and  _373
REMARK  142  A    between atoms: _372  and  _375
REMARK  143  A    between atoms: _375  and  _376
REMARK                            x       y       z     vdW  Elec       q    Type
REMARK                         _______ _______ _______ _____ _____    ______ ____
ROOT
ATOM      1  NE  ARG A   1       0.630  20.169  11.598  0.00  0.00    -0.265 N 
ATOM      2  CZ  ARG A   1       0.709  18.854  11.694  0.00  0.00    +0.342 C 
ATOM      3  NH2 ARG A   1       1.927  18.305  11.782  0.00  0.00    -0.292 N 
ATOM      4 HH21 ARG A   1       2.028  17.273  11.859  0.00  0.00    +0.255 HD
ATOM      5 HH22 ARG A   1       2.772  18.911  11.773  0.00  0.00    +0.255 HD
ATOM      6  NH1 ARG A   1      -0.377  18.067  11.708  0.00  0.00    -0.292 N 
ATOM      7 HH11 ARG A   1      -0.271  17.035  11.785  0.00  0.00    +0.255 HD
ATOM      8 HH12 ARG A   1      -1.325  18.488  11.642  0.00  0.00    +0.255 HD
ATOM      9  HE  ARG A   1       1.527  20.690  11.667  0.00  0.00    +0.259 HD
ENDROOT
BRANCH   1  10
ATOM     10  CD  ARG A   1      -0.572  20.975  11.406  0.00  0.00    +0.174 C 
BRANCH  10  11
ATOM     11  CG  ARG A   1      -0.392  21.791  10.109  0.00  0.00    +0.045 C 
BRANCH  11  12
ATOM     12  CB  ARG A   1      -1.663  22.476   9.569  0.00  0.00    +0.029 C 
BRANCH  12  13
ATOM     13  CA  ARG A   1      -1.399  23.402   8.357  0.00  0.00    +0.133 C 
BRANCH  13  14
ATOM     14  N   ARG A   1      -2.633  24.055   7.917  0.00  0.00    -0.239 NA
ATOM     15  H   ARG A   1      -3.529  23.528   7.959  0.00  0.00    +0.142 HD
ENDBRANCH  13  14
BRANCH  13  16
ATOM     16  C   ARG A   1      -0.799  22.634   7.155  0.00  0.00    +0.224 C 
ATOM     17  O   ARG A   1      -1.449  21.761   6.555  0.00  0.00    -0.287 OA
ENDBRANCH  13  16
ENDBRANCH  12  13
ENDBRANCH  11  12
ENDBRANCH  10  11
ENDBRANCH   1  10
TORSDOF 6
REMARK  Name = ../refined-set-2016/1uz1/1uz1_pocket.pdb
REMARK  143 active torsions:
REMARK  status: ('A' for Active; 'I' for Inactive)
REMARK    1  A    between atoms: _1  and  _3
REMARK    2  A    between atoms: _3  and  _4
REMARK    3  A    between atoms: _7  and  _9
REMARK    4  A    between atoms: _9  and  _10
REMARK    5  A    between atoms: _9  and  _12
REMARK    6  A    between atoms: _12  and  _13
REMARK    7  A    between atoms: _16  and  _18
REMARK    8  A    between atoms: _18  and  _19
REMARK    9  A    between atoms: _22  and  _24
REMARK   10  A    between atoms: _24  and  _25
REMARK   11  A    between atoms: _24  and  _27
REMARK   12  A    between atoms: _27  and  _28
REMARK   13  A    between atoms: _28  and  _29
REMARK   14  A    between atoms: _34  and  _36
REMARK   15  A    between atoms: _36  and  _37
REMARK   16  A    between atoms: _36  and  _39
REMARK   17  A    between atoms: _39  and  _40
REMARK   18  A    between atoms: _40  and  _41
REMARK   19  A    between atoms: _41  and  _42
REMARK   20  A    between atoms: _51  and  _53
REMARK   21  A    between atoms: _53  and  _54
REMARK   22  A    between atoms: _53  and  _56
REMARK   23  A    between atoms: _56  and  _57
REMARK   24  A    between atoms: _60  and  _62
REMARK   25  A    between atoms: _62  and  _63
REMARK   26  A    between atoms: _62  and  _65
REMARK   27  A    between atoms: _65  and  _66
REMARK   28  A    between atoms: _71  and  _73
REMARK   29  A    between atoms: _73  and  _74
REMARK   30  A    between atoms: _73  and  _76
REMARK   31  A    between atoms: _76  and  _77
REMARK   32  A    between atoms: _87  and  _89
REMARK   33  A    between atoms: _89  and  _90
REMARK   34  A    between atoms: _89  and  _92
REMARK   35  A    between atoms: _92  and  _93
REMARK   36  A    between atoms: _98  and  _100
REMARK   37  A    between atoms: _100  and  _101
REMARK   38  A    between atoms: _100  and  _103
REMARK   39  A    between atoms: _103  and  _104
REMARK   40  A    between atoms: _104  and  _105
REMARK   41  A    between atoms: _108  and  _110
REMARK   42  A    between atoms: _110  and  _111
REMARK   43  A    between atoms: _110  and  _113
REMARK   44  A    between atoms: _116  and  _118
REMARK   45  A    between atoms: _118  and  _119
REMARK   46  A    between atoms: _118  and  _121
REMARK   47  A    between atoms: _121  and  _122
REMARK   48  A    between atoms: _127  and  _129
REMARK   49  A    between atoms: _129  and  _130
REMARK   50  A    between atoms: _129  and  _132
REMARK   51  A    between atoms: _135  and  _137
REMARK   52  A    between atoms: _137  and  _138
REMARK   53  A    between atoms: _137  and  _140
REMARK   54  A    between atoms: _140  and  _141
REMARK   55  A    between atoms: _146  and  _148
REMARK   56  A    between atoms: _148  and  _149
REMARK   57  A    between atoms: _148  and  _151
REMARK   58  A    between atoms: _151  and  _152
REMARK   59  A    between atoms: _157  and  _159
REMARK   60  A    between atoms: _159  and  _160
REMARK   61  A    between atoms: _159  and  _162
REMARK   62  A    between atoms: _162  and  _163
REMARK   63  A    between atoms: _168  and  _170
REMARK   64  A    between atoms: _170  and  _171
REMARK   65  A    between atoms: _170  and  _173
REMARK   66  A    between atoms: _173  and  _174
REMARK   67  A    between atoms: _179  and  _180
REMARK   68  A    between atoms: _182  and  _184
REMARK   69  A    between atoms: _184  and  _185
REMARK   70  A    between atoms: _184  and  _187
REMARK   71  A    between atoms: _187  and  _188
REMARK   72  A    between atoms: _193  and  _194
REMARK   73  A    between atoms: _196  and  _198
REMARK   74  A    between atoms: _198  and  _199
REMARK   75  A    between atoms: _198  and  _201
REMARK   76  A    between atoms: _201  and  _202
REMARK   77  A    between atoms: _202  and  _203
REMARK   78  A    between atoms: _205  and  _207
REMARK   79  A    between atoms: _207  and  _208
REMARK   80  A    between atoms: _207  and  _210
REMARK   81  A    between atoms: _210  and  _211
REMARK   82  A    between atoms: _221  and  _223
REMARK   83  A    between atoms: _223  and  _224
REMARK   84  A    between atoms: _223  and  _226
REMARK   85  A    between atoms: _226  and  _227
REMARK   86  A    between atoms: _230  and  _232
REMARK   87  A    between atoms: _232  and  _233
REMARK   88  A    between atoms: _232  and  _235
REMARK   89  A    between atoms: _235  and  _236
REMARK   90  A    between atoms: _236  and  _237
REMARK   91  A    between atoms: _240  and  _242
REMARK   92  A    between atoms: _242  and  _243
REMARK   93  A    between atoms: _242  and  _245
REMARK   94  A    between atoms: _245  and  _246
REMARK   95  A    between atoms: _251  and  _253
REMARK   96  A    between atoms: _253  and  _254
REMARK   97  A    between atoms: _256  and  _258
REMARK   98  A    between atoms: _258  and  _259
REMARK   99  A    between atoms: _262  and  _264
REMARK  100  A    between atoms: _264  and  _265
REMARK  101  A    between atoms: _268  and  _270
REMARK  102  A    between atoms: _270  and  _271
REMARK  103  A    between atoms: _270  and  _273
REMARK  104  A    between atoms: _273  and  _274
REMARK  105  A    between atoms: _284  and  _286
REMARK  106  A    between atoms: _286  and  _287
REMARK  107  A    between atoms: _286  and  _289
REMARK  108  A    between atoms: _289  and  _290
REMARK  109  A    between atoms: _292  and  _294
REMARK  110  A    between atoms: _294  and  _295
REMARK  111  A    between atoms: _294  and  _297
REMARK  112  A    between atoms: _297  and  _298
REMARK  113  A    between atoms: _303  and  _305
REMARK  114  A    between atoms: _305  and  _306
REMARK  115  A    between atoms: _305  and  _308
REMARK  116  A    between atoms: _308  and  _309
REMARK  117  A    between atoms: _315  and  _317
REMARK  118  A    between atoms: _317  and  _318
REMARK  119  A    between atoms: _317  and  _320
REMARK  120  A    between atoms: _320  and  _321
REMARK  121  A    between atoms: _321  and  _322
REMARK  122  A    between atoms: _325  and  _327
REMARK  123  A    between atoms: _327  and  _328
REMARK  124  A    between atoms: _327  and  _330
REMARK  125  A    between atoms: _330  and  _331
REMARK  126  A    between atoms: _341  and  _343
REMARK  127  A    between atoms: _343  and  _344
REMARK  128  A    between atoms: _347  and  _349
REMARK  129  A    between atoms: _349  and  _350
REMARK  130  A    between atoms: _349  and  _352
REMARK  131  A    between atoms: _352  and  _353
REMARK  132  A    between atoms: _353  and  _354
REMARK  133  A    between atoms: _357  and  _359
REMARK  134  A    between atoms: _359  and  _360
REMARK  135  A    between atoms: _359  and  _362
REMARK  136  A    between atoms: _362  and  _363
REMARK  137  A    between atoms: _363  and  _364
REMARK  138  A    between atoms: _364  and  _365
REMARK  139  A    between atoms: _365  and  _366
REMARK  140  A    between atoms: _370  and  _372
REMARK  141  A    between atoms: _372  and  _373
REMARK  142  A    between atoms: _372  and  _375
REMARK  143  A    between atoms: _375  and  _376
REMARK                            x       y       z     vdW  Elec       q    Type
REMARK                         _______ _______ _______ _____ _____    ______ ____
ROOT
ATOM      1  CA  THR A   1       5.400  21.976   9.906  0.00  0.00    +0.160 C 
ENDROOT
BRANCH   1   2
ATOM      2  N   THR A   1       4.660  23.106   9.335  0.00  0.00    -0.237 NA
ATOM      3  H   THR A   1       4.096  22.952   8.475  0.00  0.00    +0.142 HD
ENDBRANCH   1   2
BRANCH   1   4
ATOM      4  CB  THR A   1       4.620  20.672   9.661  0.00  0.00    +0.134 C 
ATOM      5  CG2 THR A   1       5.253  19.529  10.389  0.00  0.00    +0.034 C 
BRANCH   4   6
ATOM      6  OG1 THR A   1       3.298  20.794  10.240  0.00  0.00    -0.383 OA
ATOM      7  HG1 THR A   1       2.792  19.957  10.085  0.00  0.00    +0.210 HD
ENDBRANCH   4   6
ENDBRANCH   1   4
BRANCH   1   8
ATOM      8  C   THR A   1       6.770  21.901   9.219  0.00  0.00    +0.227 C 
ATOM      9  O   THR A   1       6.863  21.656   8.015  0.00  0.00    -0.287 OA
ENDBRANCH   1   8
TORSDOF 4
REMARK  Name = ../refined-set-2016/1uz1/1uz1_pocket.pdb
REMARK  143 active torsions:
REMARK  status: ('A' for Active; 'I' for Inactive)
REMARK    1  A    between atoms: _1  and  _3
REMARK    2  A    between atoms: _3  and  _4
REMARK    3  A    between atoms: _7  and  _9
REMARK    4  A    between atoms: _9  and  _10
REMARK    5  A    between atoms: _9  and  _12
REMARK    6  A    between atoms: _12  and  _13
REMARK    7  A    between atoms: _16  and  _18
REMARK    8  A    between atoms: _18  and  _19
REMARK    9  A    between atoms: _22  and  _24
REMARK   10  A    between atoms: _24  and  _25
REMARK   11  A    between atoms: _24  and  _27
REMARK   12  A    between atoms: _27  and  _28
REMARK   13  A    between atoms: _28  and  _29
REMARK   14  A    between atoms: _34  and  _36
REMARK   15  A    between atoms: _36  and  _37
REMARK   16  A    between atoms: _36  and  _39
REMARK   17  A    between atoms: _39  and  _40
REMARK   18  A    between atoms: _40  and  _41
REMARK   19  A    between atoms: _41  and  _42
REMARK   20  A    between atoms: _51  and  _53
REMARK   21  A    between atoms: _53  and  _54
REMARK   22  A    between atoms: _53  and  _56
REMARK   23  A    between atoms: _56  and  _57
REMARK   24  A    between atoms: _60  and  _62
REMARK   25  A    between atoms: _62  and  _63
REMARK   26  A    between atoms: _62  and  _65
REMARK   27  A    between atoms: _65  and  _66
REMARK   28  A    between atoms: _71  and  _73
REMARK   29  A    between atoms: _73  and  _74
REMARK   30  A    between atoms: _73  and  _76
REMARK   31  A    between atoms: _76  and  _77
REMARK   32  A    between atoms: _87  and  _89
REMARK   33  A    between atoms: _89  and  _90
REMARK   34  A    between atoms: _89  and  _92
REMARK   35  A    between atoms: _92  and  _93
REMARK   36  A    between atoms: _98  and  _100
REMARK   37  A    between atoms: _100  and  _101
REMARK   38  A    between atoms: _100  and  _103
REMARK   39  A    between atoms: _103  and  _104
REMARK   40  A    between atoms: _104  and  _105
REMARK   41  A    between atoms: _108  and  _110
REMARK   42  A    between atoms: _110  and  _111
REMARK   43  A    between atoms: _110  and  _113
REMARK   44  A    between atoms: _116  and  _118
REMARK   45  A    between atoms: _118  and  _119
REMARK   46  A    between atoms: _118  and  _121
REMARK   47  A    between atoms: _121  and  _122
REMARK   48  A    between atoms: _127  and  _129
REMARK   49  A    between atoms: _129  and  _130
REMARK   50  A    between atoms: _129  and  _132
REMARK   51  A    between atoms: _135  and  _137
REMARK   52  A    between atoms: _137  and  _138
REMARK   53  A    between atoms: _137  and  _140
REMARK   54  A    between atoms: _140  and  _141
REMARK   55  A    between atoms: _146  and  _148
REMARK   56  A    between atoms: _148  and  _149
REMARK   57  A    between atoms: _148  and  _151
REMARK   58  A    between atoms: _151  and  _152
REMARK   59  A    between atoms: _157  and  _159
REMARK   60  A    between atoms: _159  and  _160
REMARK   61  A    between atoms: _159  and  _162
REMARK   62  A    between atoms: _162  and  _163
REMARK   63  A    between atoms: _168  and  _170
REMARK   64  A    between atoms: _170  and  _171
REMARK   65  A    between atoms: _170  and  _173
REMARK   66  A    between atoms: _173  and  _174
REMARK   67  A    between atoms: _179  and  _180
REMARK   68  A    between atoms: _182  and  _184
REMARK   69  A    between atoms: _184  and  _185
REMARK   70  A    between atoms: _184  and  _187
REMARK   71  A    between atoms: _187  and  _188
REMARK   72  A    between atoms: _193  and  _194
REMARK   73  A    between atoms: _196  and  _198
REMARK   74  A    between atoms: _198  and  _199
REMARK   75  A    between atoms: _198  and  _201
REMARK   76  A    between atoms: _201  and  _202
REMARK   77  A    between atoms: _202  and  _203
REMARK   78  A    between atoms: _205  and  _207
REMARK   79  A    between atoms: _207  and  _208
REMARK   80  A    between atoms: _207  and  _210
REMARK   81  A    between atoms: _210  and  _211
REMARK   82  A    between atoms: _221  and  _223
REMARK   83  A    between atoms: _223  and  _224
REMARK   84  A    between atoms: _223  and  _226
REMARK   85  A    between atoms: _226  and  _227
REMARK   86  A    between atoms: _230  and  _232
REMARK   87  A    between atoms: _232  and  _233
REMARK   88  A    between atoms: _232  and  _235
REMARK   89  A    between atoms: _235  and  _236
REMARK   90  A    between atoms: _236  and  _237
REMARK   91  A    between atoms: _240  and  _242
REMARK   92  A    between atoms: _242  and  _243
REMARK   93  A    between atoms: _242  and  _245
REMARK   94  A    between atoms: _245  and  _246
REMARK   95  A    between atoms: _251  and  _253
REMARK   96  A    between atoms: _253  and  _254
REMARK   97  A    between atoms: _256  and  _258
REMARK   98  A    between atoms: _258  and  _259
REMARK   99  A    between atoms: _262  and  _264
REMARK  100  A    between atoms: _264  and  _265
REMARK  101  A    between atoms: _268  and  _270
REMARK  102  A    between atoms: _270  and  _271
REMARK  103  A    between atoms: _270  and  _273
REMARK  104  A    between atoms: _273  and  _274
REMARK  105  A    between atoms: _284  and  _286
REMARK  106  A    between atoms: _286  and  _287
REMARK  107  A    between atoms: _286  and  _289
REMARK  108  A    between atoms: _289  and  _290
REMARK  109  A    between atoms: _292  and  _294
REMARK  110  A    between atoms: _294  and  _295
REMARK  111  A    between atoms: _294  and  _297
REMARK  112  A    between atoms: _297  and  _298
REMARK  113  A    between atoms: _303  and  _305
REMARK  114  A    between atoms: _305  and  _306
REMARK  115  A    between atoms: _305  and  _308
REMARK  116  A    between atoms: _308  and  _309
REMARK  117  A    between atoms: _315  and  _317
REMARK  118  A    between atoms: _317  and  _318
REMARK  119  A    between atoms: _317  and  _320
REMARK  120  A    between atoms: _320  and  _321
REMARK  121  A    between atoms: _321  and  _322
REMARK  122  A    between atoms: _325  and  _327
REMARK  123  A    between atoms: _327  and  _328
REMARK  124  A    between atoms: _327  and  _330
REMARK  125  A    between atoms: _330  and  _331
REMARK  126  A    between atoms: _341  and  _343
REMARK  127  A    between atoms: _343  and  _344
REMARK  128  A    between atoms: _347  and  _349
REMARK  129  A    between atoms: _349  and  _350
REMARK  130  A    between atoms: _349  and  _352
REMARK  131  A    between atoms: _352  and  _353
REMARK  132  A    between atoms: _353  and  _354
REMARK  133  A    between atoms: _357  and  _359
REMARK  134  A    between atoms: _359  and  _360
REMARK  135  A    between atoms: _359  and  _362
REMARK  136  A    between atoms: _362  and  _363
REMARK  137  A    between atoms: _363  and  _364
REMARK  138  A    between atoms: _364  and  _365
REMARK  139  A    between atoms: _365  and  _366
REMARK  140  A    between atoms: _370  and  _372
REMARK  141  A    between atoms: _372  and  _373
REMARK  142  A    between atoms: _372  and  _375
REMARK  143  A    between atoms: _375  and  _376
REMARK                            x       y       z     vdW  Elec       q    Type
REMARK                         _______ _______ _______ _____ _____    ______ ____
ROOT
ATOM      1  CA  TRP A   2       8.992  12.842   7.436  0.00  0.00    +0.141 C 
ENDROOT
BRANCH   1   3
ATOM      2  C   HIS A   1       7.315  14.715   7.428  0.00  0.00    +0.239 C 
ATOM      3  N   TRP A   2       8.520  14.224   7.763  0.00  0.00    -0.298 N 
ATOM      4  H   TRP A   2       9.169  14.847   8.285  0.00  0.00    +0.150 HD
ATOM      5  O   HIS A   1       6.637  14.276   6.503  0.00  0.00    -0.274 OA
BRANCH   2   6
ATOM      6  CA  HIS A   1       6.821  15.906   8.253  0.00  0.00    +0.151 C 
BRANCH   6   7
ATOM      7  N   HIS A   1       7.884  16.912   8.316  0.00  0.00    -0.238 NA
ATOM      8  H   HIS A   1       8.292  17.271   7.429  0.00  0.00    +0.142 HD
ENDBRANCH   6   7
BRANCH   6   9
ATOM      9  CB  HIS A   1       5.540  16.514   7.647  0.00  0.00    +0.074 C 
BRANCH   9  10
ATOM     10  CG  HIS A   1       4.263  15.796   7.987  0.00  0.00    +0.082 A 
ATOM     11  ND1 HIS A   1       3.153  16.458   8.477  0.00  0.00    -0.227 NA
ATOM     12  CE1 HIS A   1       2.167  15.595   8.641  0.00  0.00    +0.199 A 
ATOM     13  NE2 HIS A   1       2.577  14.404   8.235  0.00  0.00    -0.221 NA
ATOM     14  CD2 HIS A   1       3.885  14.505   7.823  0.00  0.00    +0.115 A 
ENDBRANCH   9  10
ENDBRANCH   6   9
ENDBRANCH   2   6
ENDBRANCH   1   3
BRANCH   1  15
ATOM     15  C   TRP A   2       9.853  12.685   6.186  0.00  0.00    +0.227 C 
ATOM     16  O   TRP A   2      10.498  11.636   6.017  0.00  0.00    -0.286 OA
ENDBRANCH   1  15
BRANCH   1  17
ATOM     17  CB  TRP A   2       7.846  11.823   7.365  0.00  0.00    +0.056 C 
BRANCH  17  18
ATOM     18  CG  TRP A   2       6.963  11.737   8.570  0.00  0.00    -0.002 A 
ATOM     19  CD1 TRP A   2       7.038  12.487   9.745  0.00  0.00    +0.068 A 
ATOM     20  NE1 TRP A   2       6.006  12.134  10.592  0.00  0.00    -0.352 N 
ATOM     21  HE1 TRP A   2       5.815  12.559  11.522  0.00  0.00    +0.166 HD
ATOM     22  CE2 TRP A   2       5.272  11.129  10.005  0.00  0.00    +0.056 A 
ATOM     23  CZ2 TRP A   2       4.136  10.446  10.472  0.00  0.00    +0.017 A 
ATOM     24  CH2 TRP A   2       3.586   9.490   9.658  0.00  0.00    +0.001 A 
ATOM     25  CZ3 TRP A   2       4.133   9.208   8.395  0.00  0.00    +0.000 A 
ATOM     26  CE3 TRP A   2       5.246   9.886   7.920  0.00  0.00    +0.001 A 
ATOM     27  CD2 TRP A   2       5.843  10.866   8.729  0.00  0.00    +0.013 A 
ENDBRANCH  17  18
ENDBRANCH   1  17
TORSDOF 8
REMARK  Name = ../refined-set-2016/1uz1/1uz1_pocket.pdb
REMARK  143 active torsions:
REMARK  status: ('A' for Active; 'I' for Inactive)
REMARK    1  A    between atoms: _1  and  _3
REMARK    2  A    between atoms: _3  and  _4
REMARK    3  A    between atoms: _7  and  _9
REMARK    4  A    between atoms: _9  and  _10
REMARK    5  A    between atoms: _9  and  _12
REMARK    6  A    between atoms: _12  and  _13
REMARK    7  A    between atoms: _16  and  _18
REMARK    8  A    between atoms: _18  and  _19
REMARK    9  A    between atoms: _22  and  _24
REMARK   10  A    between atoms: _24  and  _25
REMARK   11  A    between atoms: _24  and  _27
REMARK   12  A    between atoms: _27  and  _28
REMARK   13  A    between atoms: _28  and  _29
REMARK   14  A    between atoms: _34  and  _36
REMARK   15  A    between atoms: _36  and  _37
REMARK   16  A    between atoms: _36  and  _39
REMARK   17  A    between atoms: _39  and  _40
REMARK   18  A    between atoms: _40  and  _41
REMARK   19  A    between atoms: _41  and  _42
REMARK   20  A    between atoms: _51  and  _53
REMARK   21  A    between atoms: _53  and  _54
REMARK   22  A    between atoms: _53  and  _56
REMARK   23  A    between atoms: _56  and  _57
REMARK   24  A    between atoms: _60  and  _62
REMARK   25  A    between atoms: _62  and  _63
REMARK   26  A    between atoms: _62  and  _65
REMARK   27  A    between atoms: _65  and  _66
REMARK   28  A    between atoms: _71  and  _73
REMARK   29  A    between atoms: _73  and  _74
REMARK   30  A    between atoms: _73  and  _76
REMARK   31  A    between atoms: _76  and  _77
REMARK   32  A    between atoms: _87  and  _89
REMARK   33  A    between atoms: _89  and  _90
REMARK   34  A    between atoms: _89  and  _92
REMARK   35  A    between atoms: _92  and  _93
REMARK   36  A    between atoms: _98  and  _100
REMARK   37  A    between atoms: _100  and  _101
REMARK   38  A    between atoms: _100  and  _103
REMARK   39  A    between atoms: _103  and  _104
REMARK   40  A    between atoms: _104  and  _105
REMARK   41  A    between atoms: _108  and  _110
REMARK   42  A    between atoms: _110  and  _111
REMARK   43  A    between atoms: _110  and  _113
REMARK   44  A    between atoms: _116  and  _118
REMARK   45  A    between atoms: _118  and  _119
REMARK   46  A    between atoms: _118  and  _121
REMARK   47  A    between atoms: _121  and  _122
REMARK   48  A    between atoms: _127  and  _129
REMARK   49  A    between atoms: _129  and  _130
REMARK   50  A    between atoms: _129  and  _132
REMARK   51  A    between atoms: _135  and  _137
REMARK   52  A    between atoms: _137  and  _138
REMARK   53  A    between atoms: _137  and  _140
REMARK   54  A    between atoms: _140  and  _141
REMARK   55  A    between atoms: _146  and  _148
REMARK   56  A    between atoms: _148  and  _149
REMARK   57  A    between atoms: _148  and  _151
REMARK   58  A    between atoms: _151  and  _152
REMARK   59  A    between atoms: _157  and  _159
REMARK   60  A    between atoms: _159  and  _160
REMARK   61  A    between atoms: _159  and  _162
REMARK   62  A    between atoms: _162  and  _163
REMARK   63  A    between atoms: _168  and  _170
REMARK   64  A    between atoms: _170  and  _171
REMARK   65  A    between atoms: _170  and  _173
REMARK   66  A    between atoms: _173  and  _174
REMARK   67  A    between atoms: _179  and  _180
REMARK   68  A    between atoms: _182  and  _184
REMARK   69  A    between atoms: _184  and  _185
REMARK   70  A    between atoms: _184  and  _187
REMARK   71  A    between atoms: _187  and  _188
REMARK   72  A    between atoms: _193  and  _194
REMARK   73  A    between atoms: _196  and  _198
REMARK   74  A    between atoms: _198  and  _199
REMARK   75  A    between atoms: _198  and  _201
REMARK   76  A    between atoms: _201  and  _202
REMARK   77  A    between atoms: _202  and  _203
REMARK   78  A    between atoms: _205  and  _207
REMARK   79  A    between atoms: _207  and  _208
REMARK   80  A    between atoms: _207  and  _210
REMARK   81  A    between atoms: _210  and  _211
REMARK   82  A    between atoms: _221  and  _223
REMARK   83  A    between atoms: _223  and  _224
REMARK   84  A    between atoms: _223  and  _226
REMARK   85  A    between atoms: _226  and  _227
REMARK   86  A    between atoms: _230  and  _232
REMARK   87  A    between atoms: _232  and  _233
REMARK   88  A    between atoms: _232  and  _235
REMARK   89  A    between atoms: _235  and  _236
REMARK   90  A    between atoms: _236  and  _237
REMARK   91  A    between atoms: _240  and  _242
REMARK   92  A    between atoms: _242  and  _243
REMARK   93  A    between atoms: _242  and  _245
REMARK   94  A    between atoms: _245  and  _246
REMARK   95  A    between atoms: _251  and  _253
REMARK   96  A    between atoms: _253  and  _254
REMARK   97  A    between atoms: _256  and  _258
REMARK   98  A    between atoms: _258  and  _259
REMARK   99  A    between atoms: _262  and  _264
REMARK  100  A    between atoms: _264  and  _265
REMARK  101  A    between atoms: _268  and  _270
REMARK  102  A    between atoms: _270  and  _271
REMARK  103  A    between atoms: _270  and  _273
REMARK  104  A    between atoms: _273  and  _274
REMARK  105  A    between atoms: _284  and  _286
REMARK  106  A    between atoms: _286  and  _287
REMARK  107  A    between atoms: _286  and  _289
REMARK  108  A    between atoms: _289  and  _290
REMARK  109  A    between atoms: _292  and  _294
REMARK  110  A    between atoms: _294  and  _295
REMARK  111  A    between atoms: _294  and  _297
REMARK  112  A    between atoms: _297  and  _298
REMARK  113  A    between atoms: _303  and  _305
REMARK  114  A    between atoms: _305  and  _306
REMARK  115  A    between atoms: _305  and  _308
REMARK  116  A    between atoms: _308  and  _309
REMARK  117  A    between atoms: _315  and  _317
REMARK  118  A    between atoms: _317  and  _318
REMARK  119  A    between atoms: _317  and  _320
REMARK  120  A    between atoms: _320  and  _321
REMARK  121  A    between atoms: _321  and  _322
REMARK  122  A    between atoms: _325  and  _327
REMARK  123  A    between atoms: _327  and  _328
REMARK  124  A    between atoms: _327  and  _330
REMARK  125  A    between atoms: _330  and  _331
REMARK  126  A    between atoms: _341  and  _343
REMARK  127  A    between atoms: _343  and  _344
REMARK  128  A    between atoms: _347  and  _349
REMARK  129  A    between atoms: _349  and  _350
REMARK  130  A    between atoms: _349  and  _352
REMARK  131  A    between atoms: _352  and  _353
REMARK  132  A    between atoms: _353  and  _354
REMARK  133  A    between atoms: _357  and  _359
REMARK  134  A    between atoms: _359  and  _360
REMARK  135  A    between atoms: _359  and  _362
REMARK  136  A    between atoms: _362  and  _363
REMARK  137  A    between atoms: _363  and  _364
REMARK  138  A    between atoms: _364  and  _365
REMARK  139  A    between atoms: _365  and  _366
REMARK  140  A    between atoms: _370  and  _372
REMARK  141  A    between atoms: _372  and  _373
REMARK  142  A    between atoms: _372  and  _375
REMARK  143  A    between atoms: _375  and  _376
REMARK                            x       y       z     vdW  Elec       q    Type
REMARK                         _______ _______ _______ _____ _____    ______ ____
ROOT
ATOM      1  C   ASN A   1       5.429  14.411  13.619  0.00  0.00    +0.239 C 
ATOM      2  N   GLU A   2       4.809  14.014  14.736  0.00  0.00    -0.298 N 
ATOM      3  H   GLU A   2       4.324  14.734  15.309  0.00  0.00    +0.150 HD
ATOM      4  O   ASN A   1       6.135  13.677  12.940  0.00  0.00    -0.274 OA
ENDROOT
BRANCH   1   5
ATOM      5  CA  ASN A   1       5.218  15.862  13.198  0.00  0.00    +0.154 C 
BRANCH   5   6
ATOM      6  N   ASN A   1       6.438  16.678  13.226  0.00  0.00    -0.238 NA
ATOM      7  H   ASN A   1       7.061  16.660  12.394  0.00  0.00    +0.142 HD
ENDBRANCH   5   6
BRANCH   5   8
ATOM      8  CB  ASN A   1       4.581  15.866  11.799  0.00  0.00    +0.111 C 
BRANCH   8   9
ATOM      9  CG  ASN A   1       3.258  15.102  11.759  0.00  0.00    +0.221 C 
ATOM     10  OD1 ASN A   1       2.222  15.614  12.182  0.00  0.00    -0.275 OA
ATOM     11  ND2 ASN A   1       3.292  13.881  11.241  0.00  0.00    -0.329 N 
ATOM     12 HD21 ASN A   1       2.420  13.317  11.181  0.00  0.00    +0.145 HD
ATOM     13 HD22 ASN A   1       4.191  13.488  10.895  0.00  0.00    +0.145 HD
ENDBRANCH   8   9
ENDBRANCH   5   8
ENDBRANCH   1   5
BRANCH   2  14
ATOM     14  CA  GLU A   2       4.774  12.634  15.197  0.00  0.00    +0.137 C 
BRANCH  14  15
ATOM     15  C   GLU A   2       6.177  11.990  15.314  0.00  0.00    +0.227 C 
ATOM     16  O   GLU A   2       6.472  11.010  14.610  0.00  0.00    -0.286 OA
ENDBRANCH  14  15
BRANCH  14  17
ATOM     17  CB  GLU A   2       3.859  11.791  14.292  0.00  0.00    +0.039 C 
BRANCH  17  18
ATOM     18  CG  GLU A   2       2.416  12.245  14.376  0.00  0.00    +0.116 C 
BRANCH  18  19
ATOM     19  CD  GLU A   2       1.437  11.374  13.598  0.00  0.00    +0.365 C 
ATOM     20  OE2 GLU A   2       0.211  11.672  13.662  0.00  0.00    -0.246 OA
ATOM     21  OE1 GLU A   2       1.865  10.403  12.943  0.00  0.00    -0.246 OA
ENDBRANCH  18  19
ENDBRANCH  17  18
ENDBRANCH  14  17
ENDBRANCH   2  14
TORSDOF 9
REMARK  Name = ../refined-set-2016/1uz1/1uz1_pocket.pdb
REMARK  143 active torsions:
REMARK  status: ('A' for Active; 'I' for Inactive)
REMARK    1  A    between atoms: _1  and  _3
REMARK    2  A    between atoms: _3  and  _4
REMARK    3  A    between atoms: _7  and  _9
REMARK    4  A    between atoms: _9  and  _10
REMARK    5  A    between atoms: _9  and  _12
REMARK    6  A    between atoms: _12  and  _13
REMARK    7  A    between atoms: _16  and  _18
REMARK    8  A    between atoms: _18  and  _19
REMARK    9  A    between atoms: _22  and  _24
REMARK   10  A    between atoms: _24  and  _25
REMARK   11  A    between atoms: _24  and  _27
REMARK   12  A    between atoms: _27  and  _28
REMARK   13  A    between atoms: _28  and  _29
REMARK   14  A    between atoms: _34  and  _36
REMARK   15  A    between atoms: _36  and  _37
REMARK   16  A    between atoms: _36  and  _39
REMARK   17  A    between atoms: _39  and  _40
REMARK   18  A    between atoms: _40  and  _41
REMARK   19  A    between atoms: _41  and  _42
REMARK   20  A    between atoms: _51  and  _53
REMARK   21  A    between atoms: _53  and  _54
REMARK   22  A    between atoms: _53  and  _56
REMARK   23  A    between atoms: _56  and  _57
REMARK   24  A    between atoms: _60  and  _62
REMARK   25  A    between atoms: _62  and  _63
REMARK   26  A    between atoms: _62  and  _65
REMARK   27  A    between atoms: _65  and  _66
REMARK   28  A    between atoms: _71  and  _73
REMARK   29  A    between atoms: _73  and  _74
REMARK   30  A    between atoms: _73  and  _76
REMARK   31  A    between atoms: _76  and  _77
REMARK   32  A    between atoms: _87  and  _89
REMARK   33  A    between atoms: _89  and  _90
REMARK   34  A    between atoms: _89  and  _92
REMARK   35  A    between atoms: _92  and  _93
REMARK   36  A    between atoms: _98  and  _100
REMARK   37  A    between atoms: _100  and  _101
REMARK   38  A    between atoms: _100  and  _103
REMARK   39  A    between atoms: _103  and  _104
REMARK   40  A    between atoms: _104  and  _105
REMARK   41  A    between atoms: _108  and  _110
REMARK   42  A    between atoms: _110  and  _111
REMARK   43  A    between atoms: _110  and  _113
REMARK   44  A    between atoms: _116  and  _118
REMARK   45  A    between atoms: _118  and  _119
REMARK   46  A    between atoms: _118  and  _121
REMARK   47  A    between atoms: _121  and  _122
REMARK   48  A    between atoms: _127  and  _129
REMARK   49  A    between atoms: _129  and  _130
REMARK   50  A    between atoms: _129  and  _132
REMARK   51  A    between atoms: _135  and  _137
REMARK   52  A    between atoms: _137  and  _138
REMARK   53  A    between atoms: _137  and  _140
REMARK   54  A    between atoms: _140  and  _141
REMARK   55  A    between atoms: _146  and  _148
REMARK   56  A    between atoms: _148  and  _149
REMARK   57  A    between atoms: _148  and  _151
REMARK   58  A    between atoms: _151  and  _152
REMARK   59  A    between atoms: _157  and  _159
REMARK   60  A    between atoms: _159  and  _160
REMARK   61  A    between atoms: _159  and  _162
REMARK   62  A    between atoms: _162  and  _163
REMARK   63  A    between atoms: _168  and  _170
REMARK   64  A    between atoms: _170  and  _171
REMARK   65  A    between atoms: _170  and  _173
REMARK   66  A    between atoms: _173  and  _174
REMARK   67  A    between atoms: _179  and  _180
REMARK   68  A    between atoms: _182  and  _184
REMARK   69  A    between atoms: _184  and  _185
REMARK   70  A    between atoms: _184  and  _187
REMARK   71  A    between atoms: _187  and  _188
REMARK   72  A    between atoms: _193  and  _194
REMARK   73  A    between atoms: _196  and  _198
REMARK   74  A    between atoms: _198  and  _199
REMARK   75  A    between atoms: _198  and  _201
REMARK   76  A    between atoms: _201  and  _202
REMARK   77  A    between atoms: _202  and  _203
REMARK   78  A    between atoms: _205  and  _207
REMARK   79  A    between atoms: _207  and  _208
REMARK   80  A    between atoms: _207  and  _210
REMARK   81  A    between atoms: _210  and  _211
REMARK   82  A    between atoms: _221  and  _223
REMARK   83  A    between atoms: _223  and  _224
REMARK   84  A    between atoms: _223  and  _226
REMARK   85  A    between atoms: _226  and  _227
REMARK   86  A    between atoms: _230  and  _232
REMARK   87  A    between atoms: _232  and  _233
REMARK   88  A    between atoms: _232  and  _235
REMARK   89  A    between atoms: _235  and  _236
REMARK   90  A    between atoms: _236  and  _237
REMARK   91  A    between atoms: _240  and  _242
REMARK   92  A    between atoms: _242  and  _243
REMARK   93  A    between atoms: _242  and  _245
REMARK   94  A    between atoms: _245  and  _246
REMARK   95  A    between atoms: _251  and  _253
REMARK   96  A    between atoms: _253  and  _254
REMARK   97  A    between atoms: _256  and  _258
REMARK   98  A    between atoms: _258  and  _259
REMARK   99  A    between atoms: _262  and  _264
REMARK  100  A    between atoms: _264  and  _265
REMARK  101  A    between atoms: _268  and  _270
REMARK  102  A    between atoms: _270  and  _271
REMARK  103  A    between atoms: _270  and  _273
REMARK  104  A    between atoms: _273  and  _274
REMARK  105  A    between atoms: _284  and  _286
REMARK  106  A    between atoms: _286  and  _287
REMARK  107  A    between atoms: _286  and  _289
REMARK  108  A    between atoms: _289  and  _290
REMARK  109  A    between atoms: _292  and  _294
REMARK  110  A    between atoms: _294  and  _295
REMARK  111  A    between atoms: _294  and  _297
REMARK  112  A    between atoms: _297  and  _298
REMARK  113  A    between atoms: _303  and  _305
REMARK  114  A    between atoms: _305  and  _306
REMARK  115  A    between atoms: _305  and  _308
REMARK  116  A    between atoms: _308  and  _309
REMARK  117  A    between atoms: _315  and  _317
REMARK  118  A    between atoms: _317  and  _318
REMARK  119  A    between atoms: _317  and  _320
REMARK  120  A    between atoms: _320  and  _321
REMARK  121  A    between atoms: _321  and  _322
REMARK  122  A    between atoms: _325  and  _327
REMARK  123  A    between atoms: _327  and  _328
REMARK  124  A    between atoms: _327  and  _330
REMARK  125  A    between atoms: _330  and  _331
REMARK  126  A    between atoms: _341  and  _343
REMARK  127  A    between atoms: _343  and  _344
REMARK  128  A    between atoms: _347  and  _349
REMARK  129  A    between atoms: _349  and  _350
REMARK  130  A    between atoms: _349  and  _352
REMARK  131  A    between atoms: _352  and  _353
REMARK  132  A    between atoms: _353  and  _354
REMARK  133  A    between atoms: _357  and  _359
REMARK  134  A    between atoms: _359  and  _360
REMARK  135  A    between atoms: _359  and  _362
REMARK  136  A    between atoms: _362  and  _363
REMARK  137  A    between atoms: _363  and  _364
REMARK  138  A    between atoms: _364  and  _365
REMARK  139  A    between atoms: _365  and  _366
REMARK  140  A    between atoms: _370  and  _372
REMARK  141  A    between atoms: _372  and  _373
REMARK  142  A    between atoms: _372  and  _375
REMARK  143  A    between atoms: _375  and  _376
REMARK                            x       y       z     vdW  Elec       q    Type
REMARK                         _______ _______ _______ _____ _____    ______ ____
ROOT
ATOM      1  CA  VAL A   1       6.331   7.443  14.345  0.00  0.00    +0.133 C 
ENDROOT
BRANCH   1   2
ATOM      2  CB  VAL A   1       5.176   8.024  13.472  0.00  0.00    +0.023 C 
ATOM      3  CG2 VAL A   1       3.831   7.908  14.182  0.00  0.00    +0.002 C 
ATOM      4  CG1 VAL A   1       5.112   7.317  12.105  0.00  0.00    +0.002 C 
ENDBRANCH   1   2
BRANCH   1   5
ATOM      5  N   VAL A   1       6.432   8.177  15.627  0.00  0.00    -0.239 NA
ATOM      6  H   VAL A   1       5.815   8.998  15.792  0.00  0.00    +0.142 HD
ENDBRANCH   1   5
BRANCH   1   7
ATOM      7  C   VAL A   1       7.652   7.481  13.537  0.00  0.00    +0.224 C 
ATOM      8  O   VAL A   1       8.108   6.468  13.020  0.00  0.00    -0.287 OA
ENDBRANCH   1   7
TORSDOF 3
REMARK  Name = ../refined-set-2016/1uz1/1uz1_pocket.pdb
REMARK  143 active torsions:
REMARK  status: ('A' for Active; 'I' for Inactive)
REMARK    1  A    between atoms: _1  and  _3
REMARK    2  A    between atoms: _3  and  _4
REMARK    3  A    between atoms: _7  and  _9
REMARK    4  A    between atoms: _9  and  _10
REMARK    5  A    between atoms: _9  and  _12
REMARK    6  A    between atoms: _12  and  _13
REMARK    7  A    between atoms: _16  and  _18
REMARK    8  A    between atoms: _18  and  _19
REMARK    9  A    between atoms: _22  and  _24
REMARK   10  A    between atoms: _24  and  _25
REMARK   11  A    between atoms: _24  and  _27
REMARK   12  A    between atoms: _27  and  _28
REMARK   13  A    between atoms: _28  and  _29
REMARK   14  A    between atoms: _34  and  _36
REMARK   15  A    between atoms: _36  and  _37
REMARK   16  A    between atoms: _36  and  _39
REMARK   17  A    between atoms: _39  and  _40
REMARK   18  A    between atoms: _40  and  _41
REMARK   19  A    between atoms: _41  and  _42
REMARK   20  A    between atoms: _51  and  _53
REMARK   21  A    between atoms: _53  and  _54
REMARK   22  A    between atoms: _53  and  _56
REMARK   23  A    between atoms: _56  and  _57
REMARK   24  A    between atoms: _60  and  _62
REMARK   25  A    between atoms: _62  and  _63
REMARK   26  A    between atoms: _62  and  _65
REMARK   27  A    between atoms: _65  and  _66
REMARK   28  A    between atoms: _71  and  _73
REMARK   29  A    between atoms: _73  and  _74
REMARK   30  A    between atoms: _73  and  _76
REMARK   31  A    between atoms: _76  and  _77
REMARK   32  A    between atoms: _87  and  _89
REMARK   33  A    between atoms: _89  and  _90
REMARK   34  A    between atoms: _89  and  _92
REMARK   35  A    between atoms: _92  and  _93
REMARK   36  A    between atoms: _98  and  _100
REMARK   37  A    between atoms: _100  and  _101
REMARK   38  A    between atoms: _100  and  _103
REMARK   39  A    between atoms: _103  and  _104
REMARK   40  A    between atoms: _104  and  _105
REMARK   41  A    between atoms: _108  and  _110
REMARK   42  A    between atoms: _110  and  _111
REMARK   43  A    between atoms: _110  and  _113
REMARK   44  A    between atoms: _116  and  _118
REMARK   45  A    between atoms: _118  and  _119
REMARK   46  A    between atoms: _118  and  _121
REMARK   47  A    between atoms: _121  and  _122
REMARK   48  A    between atoms: _127  and  _129
REMARK   49  A    between atoms: _129  and  _130
REMARK   50  A    between atoms: _129  and  _132
REMARK   51  A    between atoms: _135  and  _137
REMARK   52  A    between atoms: _137  and  _138
REMARK   53  A    between atoms: _137  and  _140
REMARK   54  A    between atoms: _140  and  _141
REMARK   55  A    between atoms: _146  and  _148
REMARK   56  A    between atoms: _148  and  _149
REMARK   57  A    between atoms: _148  and  _151
REMARK   58  A    between atoms: _151  and  _152
REMARK   59  A    between atoms: _157  and  _159
REMARK   60  A    between atoms: _159  and  _160
REMARK   61  A    between atoms: _159  and  _162
REMARK   62  A    between atoms: _162  and  _163
REMARK   63  A    between atoms: _168  and  _170
REMARK   64  A    between atoms: _170  and  _171
REMARK   65  A    between atoms: _170  and  _173
REMARK   66  A    between atoms: _173  and  _174
REMARK   67  A    between atoms: _179  and  _180
REMARK   68  A    between atoms: _182  and  _184
REMARK   69  A    between atoms: _184  and  _185
REMARK   70  A    between atoms: _184  and  _187
REMARK   71  A    between atoms: _187  and  _188
REMARK   72  A    between atoms: _193  and  _194
REMARK   73  A    between atoms: _196  and  _198
REMARK   74  A    between atoms: _198  and  _199
REMARK   75  A    between atoms: _198  and  _201
REMARK   76  A    between atoms: _201  and  _202
REMARK   77  A    between atoms: _202  and  _203
REMARK   78  A    between atoms: _205  and  _207
REMARK   79  A    between atoms: _207  and  _208
REMARK   80  A    between atoms: _207  and  _210
REMARK   81  A    between atoms: _210  and  _211
REMARK   82  A    between atoms: _221  and  _223
REMARK   83  A    between atoms: _223  and  _224
REMARK   84  A    between atoms: _223  and  _226
REMARK   85  A    between atoms: _226  and  _227
REMARK   86  A    between atoms: _230  and  _232
REMARK   87  A    between atoms: _232  and  _233
REMARK   88  A    between atoms: _232  and  _235
REMARK   89  A    between atoms: _235  and  _236
REMARK   90  A    between atoms: _236  and  _237
REMARK   91  A    between atoms: _240  and  _242
REMARK   92  A    between atoms: _242  and  _243
REMARK   93  A    between atoms: _242  and  _245
REMARK   94  A    between atoms: _245  and  _246
REMARK   95  A    between atoms: _251  and  _253
REMARK   96  A    between atoms: _253  and  _254
REMARK   97  A    between atoms: _256  and  _258
REMARK   98  A    between atoms: _258  and  _259
REMARK   99  A    between atoms: _262  and  _264
REMARK  100  A    between atoms: _264  and  _265
REMARK  101  A    between atoms: _268  and  _270
REMARK  102  A    between atoms: _270  and  _271
REMARK  103  A    between atoms: _270  and  _273
REMARK  104  A    between atoms: _273  and  _274
REMARK  105  A    between atoms: _284  and  _286
REMARK  106  A    between atoms: _286  and  _287
REMARK  107  A    between atoms: _286  and  _289
REMARK  108  A    between atoms: _289  and  _290
REMARK  109  A    between atoms: _292  and  _294
REMARK  110  A    between atoms: _294  and  _295
REMARK  111  A    between atoms: _294  and  _297
REMARK  112  A    between atoms: _297  and  _298
REMARK  113  A    between atoms: _303  and  _305
REMARK  114  A    between atoms: _305  and  _306
REMARK  115  A    between atoms: _305  and  _308
REMARK  116  A    between atoms: _308  and  _309
REMARK  117  A    between atoms: _315  and  _317
REMARK  118  A    between atoms: _317  and  _318
REMARK  119  A    between atoms: _317  and  _320
REMARK  120  A    between atoms: _320  and  _321
REMARK  121  A    between atoms: _321  and  _322
REMARK  122  A    between atoms: _325  and  _327
REMARK  123  A    between atoms: _327  and  _328
REMARK  124  A    between atoms: _327  and  _330
REMARK  125  A    between atoms: _330  and  _331
REMARK  126  A    between atoms: _341  and  _343
REMARK  127  A    between atoms: _343  and  _344
REMARK  128  A    between atoms: _347  and  _349
REMARK  129  A    between atoms: _349  and  _350
REMARK  130  A    between atoms: _349  and  _352
REMARK  131  A    between atoms: _352  and  _353
REMARK  132  A    between atoms: _353  and  _354
REMARK  133  A    between atoms: _357  and  _359
REMARK  134  A    between atoms: _359  and  _360
REMARK  135  A    between atoms: _359  and  _362
REMARK  136  A    between atoms: _362  and  _363
REMARK  137  A    between atoms: _363  and  _364
REMARK  138  A    between atoms: _364  and  _365
REMARK  139  A    between atoms: _365  and  _366
REMARK  140  A    between atoms: _370  and  _372
REMARK  141  A    between atoms: _372  and  _373
REMARK  142  A    between atoms: _372  and  _375
REMARK  143  A    between atoms: _375  and  _376
REMARK                            x       y       z     vdW  Elec       q    Type
REMARK                         _______ _______ _______ _____ _____    ______ ____
ROOT
ATOM      1  CB  HIS A   1       7.705   4.829   8.023  0.00  0.00    +0.072 C 
ENDROOT
BRANCH   1   2
ATOM      2  CG  HIS A   1       6.205   4.966   8.089  0.00  0.00    +0.082 A 
ATOM      3  ND1 HIS A   1       5.582   5.912   8.874  0.00  0.00    -0.227 NA
ATOM      4  CE1 HIS A   1       4.272   5.797   8.738  0.00  0.00    +0.199 A 
ATOM      5  NE2 HIS A   1       4.021   4.824   7.882  0.00  0.00    -0.221 NA
ATOM      6  CD2 HIS A   1       5.215   4.283   7.464  0.00  0.00    +0.115 A 
ENDBRANCH   1   2
BRANCH   1   7
ATOM      7  CA  HIS A   1       8.189   3.759   7.042  0.00  0.00    +0.139 C 
BRANCH   7   8
ATOM      8  N   HIS A   1       8.079   2.427   7.651  0.00  0.00    -0.239 NA
ATOM      9  H   HIS A   1       8.566   2.251   8.553  0.00  0.00    +0.142 HD
ENDBRANCH   7   8
BRANCH   7  10
ATOM     10  C   HIS A   1       9.661   4.016   6.757  0.00  0.00    +0.224 C 
ATOM     11  O   HIS A   1      10.526   3.381   7.361  0.00  0.00    -0.287 OA
ENDBRANCH   7  10
ENDBRANCH   1   7
TORSDOF 4
REMARK  Name = ../refined-set-2016/1uz1/1uz1_pocket.pdb
REMARK  143 active torsions:
REMARK  status: ('A' for Active; 'I' for Inactive)
REMARK    1  A    between atoms: _1  and  _3
REMARK    2  A    between atoms: _3  and  _4
REMARK    3  A    between atoms: _7  and  _9
REMARK    4  A    between atoms: _9  and  _10
REMARK    5  A    between atoms: _9  and  _12
REMARK    6  A    between atoms: _12  and  _13
REMARK    7  A    between atoms: _16  and  _18
REMARK    8  A    between atoms: _18  and  _19
REMARK    9  A    between atoms: _22  and  _24
REMARK   10  A    between atoms: _24  and  _25
REMARK   11  A    between atoms: _24  and  _27
REMARK   12  A    between atoms: _27  and  _28
REMARK   13  A    between atoms: _28  and  _29
REMARK   14  A    between atoms: _34  and  _36
REMARK   15  A    between atoms: _36  and  _37
REMARK   16  A    between atoms: _36  and  _39
REMARK   17  A    between atoms: _39  and  _40
REMARK   18  A    between atoms: _40  and  _41
REMARK   19  A    between atoms: _41  and  _42
REMARK   20  A    between atoms: _51  and  _53
REMARK   21  A    between atoms: _53  and  _54
REMARK   22  A    between atoms: _53  and  _56
REMARK   23  A    between atoms: _56  and  _57
REMARK   24  A    between atoms: _60  and  _62
REMARK   25  A    between atoms: _62  and  _63
REMARK   26  A    between atoms: _62  and  _65
REMARK   27  A    between atoms: _65  and  _66
REMARK   28  A    between atoms: _71  and  _73
REMARK   29  A    between atoms: _73  and  _74
REMARK   30  A    between atoms: _73  and  _76
REMARK   31  A    between atoms: _76  and  _77
REMARK   32  A    between atoms: _87  and  _89
REMARK   33  A    between atoms: _89  and  _90
REMARK   34  A    between atoms: _89  and  _92
REMARK   35  A    between atoms: _92  and  _93
REMARK   36  A    between atoms: _98  and  _100
REMARK   37  A    between atoms: _100  and  _101
REMARK   38  A    between atoms: _100  and  _103
REMARK   39  A    between atoms: _103  and  _104
REMARK   40  A    between atoms: _104  and  _105
REMARK   41  A    between atoms: _108  and  _110
REMARK   42  A    between atoms: _110  and  _111
REMARK   43  A    between atoms: _110  and  _113
REMARK   44  A    between atoms: _116  and  _118
REMARK   45  A    between atoms: _118  and  _119
REMARK   46  A    between atoms: _118  and  _121
REMARK   47  A    between atoms: _121  and  _122
REMARK   48  A    between atoms: _127  and  _129
REMARK   49  A    between atoms: _129  and  _130
REMARK   50  A    between atoms: _129  and  _132
REMARK   51  A    between atoms: _135  and  _137
REMARK   52  A    between atoms: _137  and  _138
REMARK   53  A    between atoms: _137  and  _140
REMARK   54  A    between atoms: _140  and  _141
REMARK   55  A    between atoms: _146  and  _148
REMARK   56  A    between atoms: _148  and  _149
REMARK   57  A    between atoms: _148  and  _151
REMARK   58  A    between atoms: _151  and  _152
REMARK   59  A    between atoms: _157  and  _159
REMARK   60  A    between atoms: _159  and  _160
REMARK   61  A    between atoms: _159  and  _162
REMARK   62  A    between atoms: _162  and  _163
REMARK   63  A    between atoms: _168  and  _170
REMARK   64  A    between atoms: _170  and  _171
REMARK   65  A    between atoms: _170  and  _173
REMARK   66  A    between atoms: _173  and  _174
REMARK   67  A    between atoms: _179  and  _180
REMARK   68  A    between atoms: _182  and  _184
REMARK   69  A    between atoms: _184  and  _185
REMARK   70  A    between atoms: _184  and  _187
REMARK   71  A    between atoms: _187  and  _188
REMARK   72  A    between atoms: _193  and  _194
REMARK   73  A    between atoms: _196  and  _198
REMARK   74  A    between atoms: _198  and  _199
REMARK   75  A    between atoms: _198  and  _201
REMARK   76  A    between atoms: _201  and  _202
REMARK   77  A    between atoms: _202  and  _203
REMARK   78  A    between atoms: _205  and  _207
REMARK   79  A    between atoms: _207  and  _208
REMARK   80  A    between atoms: _207  and  _210
REMARK   81  A    between atoms: _210  and  _211
REMARK   82  A    between atoms: _221  and  _223
REMARK   83  A    between atoms: _223  and  _224
REMARK   84  A    between atoms: _223  and  _226
REMARK   85  A    between atoms: _226  and  _227
REMARK   86  A    between atoms: _230  and  _232
REMARK   87  A    between atoms: _232  and  _233
REMARK   88  A    between atoms: _232  and  _235
REMARK   89  A    between atoms: _235  and  _236
REMARK   90  A    between atoms: _236  and  _237
REMARK   91  A    between atoms: _240  and  _242
REMARK   92  A    between atoms: _242  and  _243
REMARK   93  A    between atoms: _242  and  _245
REMARK   94  A    between atoms: _245  and  _246
REMARK   95  A    between atoms: _251  and  _253
REMARK   96  A    between atoms: _253  and  _254
REMARK   97  A    between atoms: _256  and  _258
REMARK   98  A    between atoms: _258  and  _259
REMARK   99  A    between atoms: _262  and  _264
REMARK  100  A    between atoms: _264  and  _265
REMARK  101  A    between atoms: _268  and  _270
REMARK  102  A    between atoms: _270  and  _271
REMARK  103  A    between atoms: _270  and  _273
REMARK  104  A    between atoms: _273  and  _274
REMARK  105  A    between atoms: _284  and  _286
REMARK  106  A    between atoms: _286  and  _287
REMARK  107  A    between atoms: _286  and  _289
REMARK  108  A    between atoms: _289  and  _290
REMARK  109  A    between atoms: _292  and  _294
REMARK  110  A    between atoms: _294  and  _295
REMARK  111  A    between atoms: _294  and  _297
REMARK  112  A    between atoms: _297  and  _298
REMARK  113  A    between atoms: _303  and  _305
REMARK  114  A    between atoms: _305  and  _306
REMARK  115  A    between atoms: _305  and  _308
REMARK  116  A    between atoms: _308  and  _309
REMARK  117  A    between atoms: _315  and  _317
REMARK  118  A    between atoms: _317  and  _318
REMARK  119  A    between atoms: _317  and  _320
REMARK  120  A    between atoms: _320  and  _321
REMARK  121  A    between atoms: _321  and  _322
REMARK  122  A    between atoms: _325  and  _327
REMARK  123  A    between atoms: _327  and  _328
REMARK  124  A    between atoms: _327  and  _330
REMARK  125  A    between atoms: _330  and  _331
REMARK  126  A    between atoms: _341  and  _343
REMARK  127  A    between atoms: _343  and  _344
REMARK  128  A    between atoms: _347  and  _349
REMARK  129  A    between atoms: _349  and  _350
REMARK  130  A    between atoms: _349  and  _352
REMARK  131  A    between atoms: _352  and  _353
REMARK  132  A    between atoms: _353  and  _354
REMARK  133  A    between atoms: _357  and  _359
REMARK  134  A    between atoms: _359  and  _360
REMARK  135  A    between atoms: _359  and  _362
REMARK  136  A    between atoms: _362  and  _363
REMARK  137  A    between atoms: _363  and  _364
REMARK  138  A    between atoms: _364  and  _365
REMARK  139  A    between atoms: _365  and  _366
REMARK  140  A    between atoms: _370  and  _372
REMARK  141  A    between atoms: _372  and  _373
REMARK  142  A    between atoms: _372  and  _375
REMARK  143  A    between atoms: _375  and  _376
REMARK                            x       y       z     vdW  Elec       q    Type
REMARK                         _______ _______ _______ _____ _____    ______ ____
ROOT
ATOM      1  CA  VAL A   1       2.946  17.653  17.331  0.00  0.00    +0.133 C 
ENDROOT
BRANCH   1   2
ATOM      2  CB  VAL A   1       2.416  17.801  15.855  0.00  0.00    +0.023 C 
ATOM      3  CG2 VAL A   1       1.865  19.214  15.604  0.00  0.00    +0.002 C 
ATOM      4  CG1 VAL A   1       1.406  16.745  15.538  0.00  0.00    +0.002 C 
ENDBRANCH   1   2
BRANCH   1   5
ATOM      5  N   VAL A   1       4.165  18.441  17.528  0.00  0.00    -0.239 NA
ATOM      6  H   VAL A   1       4.988  18.249  16.922  0.00  0.00    +0.142 HD
ENDBRANCH   1   5
BRANCH   1   7
ATOM      7  C   VAL A   1       3.186  16.180  17.606  0.00  0.00    +0.224 C 
ATOM      8  O   VAL A   1       4.147  15.613  17.087  0.00  0.00    -0.287 OA
ENDBRANCH   1   7
TORSDOF 3
REMARK  Name = ../refined-set-2016/1uz1/1uz1_pocket.pdb
REMARK  143 active torsions:
REMARK  status: ('A' for Active; 'I' for Inactive)
REMARK    1  A    between atoms: _1  and  _3
REMARK    2  A    between atoms: _3  and  _4
REMARK    3  A    between atoms: _7  and  _9
REMARK    4  A    between atoms: _9  and  _10
REMARK    5  A    between atoms: _9  and  _12
REMARK    6  A    between atoms: _12  and  _13
REMARK    7  A    between atoms: _16  and  _18
REMARK    8  A    between atoms: _18  and  _19
REMARK    9  A    between atoms: _22  and  _24
REMARK   10  A    between atoms: _24  and  _25
REMARK   11  A    between atoms: _24  and  _27
REMARK   12  A    between atoms: _27  and  _28
REMARK   13  A    between atoms: _28  and  _29
REMARK   14  A    between atoms: _34  and  _36
REMARK   15  A    between atoms: _36  and  _37
REMARK   16  A    between atoms: _36  and  _39
REMARK   17  A    between atoms: _39  and  _40
REMARK   18  A    between atoms: _40  and  _41
REMARK   19  A    between atoms: _41  and  _42
REMARK   20  A    between atoms: _51  and  _53
REMARK   21  A    between atoms: _53  and  _54
REMARK   22  A    between atoms: _53  and  _56
REMARK   23  A    between atoms: _56  and  _57
REMARK   24  A    between atoms: _60  and  _62
REMARK   25  A    between atoms: _62  and  _63
REMARK   26  A    between atoms: _62  and  _65
REMARK   27  A    between atoms: _65  and  _66
REMARK   28  A    between atoms: _71  and  _73
REMARK   29  A    between atoms: _73  and  _74
REMARK   30  A    between atoms: _73  and  _76
REMARK   31  A    between atoms: _76  and  _77
REMARK   32  A    between atoms: _87  and  _89
REMARK   33  A    between atoms: _89  and  _90
REMARK   34  A    between atoms: _89  and  _92
REMARK   35  A    between atoms: _92  and  _93
REMARK   36  A    between atoms: _98  and  _100
REMARK   37  A    between atoms: _100  and  _101
REMARK   38  A    between atoms: _100  and  _103
REMARK   39  A    between atoms: _103  and  _104
REMARK   40  A    between atoms: _104  and  _105
REMARK   41  A    between atoms: _108  and  _110
REMARK   42  A    between atoms: _110  and  _111
REMARK   43  A    between atoms: _110  and  _113
REMARK   44  A    between atoms: _116  and  _118
REMARK   45  A    between atoms: _118  and  _119
REMARK   46  A    between atoms: _118  and  _121
REMARK   47  A    between atoms: _121  and  _122
REMARK   48  A    between atoms: _127  and  _129
REMARK   49  A    between atoms: _129  and  _130
REMARK   50  A    between atoms: _129  and  _132
REMARK   51  A    between atoms: _135  and  _137
REMARK   52  A    between atoms: _137  and  _138
REMARK   53  A    between atoms: _137  and  _140
REMARK   54  A    between atoms: _140  and  _141
REMARK   55  A    between atoms: _146  and  _148
REMARK   56  A    between atoms: _148  and  _149
REMARK   57  A    between atoms: _148  and  _151
REMARK   58  A    between atoms: _151  and  _152
REMARK   59  A    between atoms: _157  and  _159
REMARK   60  A    between atoms: _159  and  _160
REMARK   61  A    between atoms: _159  and  _162
REMARK   62  A    between atoms: _162  and  _163
REMARK   63  A    between atoms: _168  and  _170
REMARK   64  A    between atoms: _170  and  _171
REMARK   65  A    between atoms: _170  and  _173
REMARK   66  A    between atoms: _173  and  _174
REMARK   67  A    between atoms: _179  and  _180
REMARK   68  A    between atoms: _182  and  _184
REMARK   69  A    between atoms: _184  and  _185
REMARK   70  A    between atoms: _184  and  _187
REMARK   71  A    between atoms: _187  and  _188
REMARK   72  A    between atoms: _193  and  _194
REMARK   73  A    between atoms: _196  and  _198
REMARK   74  A    between atoms: _198  and  _199
REMARK   75  A    between atoms: _198  and  _201
REMARK   76  A    between atoms: _201  and  _202
REMARK   77  A    between atoms: _202  and  _203
REMARK   78  A    between atoms: _205  and  _207
REMARK   79  A    between atoms: _207  and  _208
REMARK   80  A    between atoms: _207  and  _210
REMARK   81  A    between atoms: _210  and  _211
REMARK   82  A    between atoms: _221  and  _223
REMARK   83  A    between atoms: _223  and  _224
REMARK   84  A    between atoms: _223  and  _226
REMARK   85  A    between atoms: _226  and  _227
REMARK   86  A    between atoms: _230  and  _232
REMARK   87  A    between atoms: _232  and  _233
REMARK   88  A    between atoms: _232  and  _235
REMARK   89  A    between atoms: _235  and  _236
REMARK   90  A    between atoms: _236  and  _237
REMARK   91  A    between atoms: _240  and  _242
REMARK   92  A    between atoms: _242  and  _243
REMARK   93  A    between atoms: _242  and  _245
REMARK   94  A    between atoms: _245  and  _246
REMARK   95  A    between atoms: _251  and  _253
REMARK   96  A    between atoms: _253  and  _254
REMARK   97  A    between atoms: _256  and  _258
REMARK   98  A    between atoms: _258  and  _259
REMARK   99  A    between atoms: _262  and  _264
REMARK  100  A    between atoms: _264  and  _265
REMARK  101  A    between atoms: _268  and  _270
REMARK  102  A    between atoms: _270  and  _271
REMARK  103  A    between atoms: _270  and  _273
REMARK  104  A    between atoms: _273  and  _274
REMARK  105  A    between atoms: _284  and  _286
REMARK  106  A    between atoms: _286  and  _287
REMARK  107  A    between atoms: _286  and  _289
REMARK  108  A    between atoms: _289  and  _290
REMARK  109  A    between atoms: _292  and  _294
REMARK  110  A    between atoms: _294  and  _295
REMARK  111  A    between atoms: _294  and  _297
REMARK  112  A    between atoms: _297  and  _298
REMARK  113  A    between atoms: _303  and  _305
REMARK  114  A    between atoms: _305  and  _306
REMARK  115  A    between atoms: _305  and  _308
REMARK  116  A    between atoms: _308  and  _309
REMARK  117  A    between atoms: _315  and  _317
REMARK  118  A    between atoms: _317  and  _318
REMARK  119  A    between atoms: _317  and  _320
REMARK  120  A    between atoms: _320  and  _321
REMARK  121  A    between atoms: _321  and  _322
REMARK  122  A    between atoms: _325  and  _327
REMARK  123  A    between atoms: _327  and  _328
REMARK  124  A    between atoms: _327  and  _330
REMARK  125  A    between atoms: _330  and  _331
REMARK  126  A    between atoms: _341  and  _343
REMARK  127  A    between atoms: _343  and  _344
REMARK  128  A    between atoms: _347  and  _349
REMARK  129  A    between atoms: _349  and  _350
REMARK  130  A    between atoms: _349  and  _352
REMARK  131  A    between atoms: _352  and  _353
REMARK  132  A    between atoms: _353  and  _354
REMARK  133  A    between atoms: _357  and  _359
REMARK  134  A    between atoms: _359  and  _360
REMARK  135  A    between atoms: _359  and  _362
REMARK  136  A    between atoms: _362  and  _363
REMARK  137  A    between atoms: _363  and  _364
REMARK  138  A    between atoms: _364  and  _365
REMARK  139  A    between atoms: _365  and  _366
REMARK  140  A    between atoms: _370  and  _372
REMARK  141  A    between atoms: _372  and  _373
REMARK  142  A    between atoms: _372  and  _375
REMARK  143  A    between atoms: _375  and  _376
REMARK                            x       y       z     vdW  Elec       q    Type
REMARK                         _______ _______ _______ _____ _____    ______ ____
ROOT
ATOM      1  C   ASN A   1      -0.083  10.651  19.043  0.00  0.00    +0.239 C 
ATOM      2  O   ASN A   1       0.710  10.647  20.000  0.00  0.00    -0.274 OA
ATOM      3  N   ASN A   2      -1.344  10.258  19.144  0.00  0.00    -0.298 N 
ATOM      4  H   ASN A   2      -1.968  10.317  18.314  0.00  0.00    +0.150 HD
ENDROOT
BRANCH   1   5
ATOM      5  CA  ASN A   1       0.359  11.138  17.657  0.00  0.00    +0.154 C 
BRANCH   5   6
ATOM      6  N   ASN A   1       1.457  12.090  17.856  0.00  0.00    -0.238 NA
ATOM      7  H   ASN A   1       2.433  11.800  17.643  0.00  0.00    +0.142 HD
ENDBRANCH   5   6
BRANCH   5   8
ATOM      8  CB  ASN A   1       0.787   9.912  16.837  0.00  0.00    +0.111 C 
BRANCH   8   9
ATOM      9  CG  ASN A   1       2.065   9.289  17.347  0.00  0.00    +0.221 C 
ATOM     10  ND2 ASN A   1       1.960   8.065  17.880  0.00  0.00    -0.329 N 
ATOM     11 HD21 ASN A   1       2.802   7.592  18.266  0.00  0.00    +0.145 HD
ATOM     12 HD22 ASN A   1       1.037   7.587  17.908  0.00  0.00    +0.145 HD
ATOM     13  OD1 ASN A   1       3.139   9.905  17.287  0.00  0.00    -0.275 OA
ENDBRANCH   8   9
ENDBRANCH   5   8
ENDBRANCH   1   5
BRANCH   3  14
ATOM     14  CA  ASN A   2      -1.878   9.735  20.425  0.00  0.00    +0.146 C 
BRANCH  14  15
ATOM     15  C   ASN A   2      -2.963   8.720  20.176  0.00  0.00    +0.227 C 
ATOM     16  O   ASN A   2      -3.756   8.880  19.259  0.00  0.00    -0.286 OA
ENDBRANCH  14  15
BRANCH  14  17
ATOM     17  CB  ASN A   2      -2.437  10.848  21.317  0.00  0.00    +0.112 C 
BRANCH  17  18
ATOM     18  CG  ASN A   2      -1.476  11.956  21.543  0.00  0.00    +0.222 C 
ATOM     19  OD1 ASN A   2      -0.679  11.924  22.498  0.00  0.00    -0.275 OA
ATOM     20  ND2 ASN A   2      -1.554  12.987  20.686  0.00  0.00    -0.329 N 
ATOM     21 HD21 ASN A   2      -0.929  13.810  20.804  0.00  0.00    +0.145 HD
ATOM     22 HD22 ASN A   2      -2.239  12.962  19.904  0.00  0.00    +0.145 HD
ENDBRANCH  17  18
ENDBRANCH  14  17
ENDBRANCH   3  14
TORSDOF 8
REMARK  Name = ../refined-set-2016/1uz1/1uz1_pocket.pdb
REMARK  143 active torsions:
REMARK  status: ('A' for Active; 'I' for Inactive)
REMARK    1  A    between atoms: _1  and  _3
REMARK    2  A    between atoms: _3  and  _4
REMARK    3  A    between atoms: _7  and  _9
REMARK    4  A    between atoms: _9  and  _10
REMARK    5  A    between atoms: _9  and  _12
REMARK    6  A    between atoms: _12  and  _13
REMARK    7  A    between atoms: _16  and  _18
REMARK    8  A    between atoms: _18  and  _19
REMARK    9  A    between atoms: _22  and  _24
REMARK   10  A    between atoms: _24  and  _25
REMARK   11  A    between atoms: _24  and  _27
REMARK   12  A    between atoms: _27  and  _28
REMARK   13  A    between atoms: _28  and  _29
REMARK   14  A    between atoms: _34  and  _36
REMARK   15  A    between atoms: _36  and  _37
REMARK   16  A    between atoms: _36  and  _39
REMARK   17  A    between atoms: _39  and  _40
REMARK   18  A    between atoms: _40  and  _41
REMARK   19  A    between atoms: _41  and  _42
REMARK   20  A    between atoms: _51  and  _53
REMARK   21  A    between atoms: _53  and  _54
REMARK   22  A    between atoms: _53  and  _56
REMARK   23  A    between atoms: _56  and  _57
REMARK   24  A    between atoms: _60  and  _62
REMARK   25  A    between atoms: _62  and  _63
REMARK   26  A    between atoms: _62  and  _65
REMARK   27  A    between atoms: _65  and  _66
REMARK   28  A    between atoms: _71  and  _73
REMARK   29  A    between atoms: _73  and  _74
REMARK   30  A    between atoms: _73  and  _76
REMARK   31  A    between atoms: _76  and  _77
REMARK   32  A    between atoms: _87  and  _89
REMARK   33  A    between atoms: _89  and  _90
REMARK   34  A    between atoms: _89  and  _92
REMARK   35  A    between atoms: _92  and  _93
REMARK   36  A    between atoms: _98  and  _100
REMARK   37  A    between atoms: _100  and  _101
REMARK   38  A    between atoms: _100  and  _103
REMARK   39  A    between atoms: _103  and  _104
REMARK   40  A    between atoms: _104  and  _105
REMARK   41  A    between atoms: _108  and  _110
REMARK   42  A    between atoms: _110  and  _111
REMARK   43  A    between atoms: _110  and  _113
REMARK   44  A    between atoms: _116  and  _118
REMARK   45  A    between atoms: _118  and  _119
REMARK   46  A    between atoms: _118  and  _121
REMARK   47  A    between atoms: _121  and  _122
REMARK   48  A    between atoms: _127  and  _129
REMARK   49  A    between atoms: _129  and  _130
REMARK   50  A    between atoms: _129  and  _132
REMARK   51  A    between atoms: _135  and  _137
REMARK   52  A    between atoms: _137  and  _138
REMARK   53  A    between atoms: _137  and  _140
REMARK   54  A    between atoms: _140  and  _141
REMARK   55  A    between atoms: _146  and  _148
REMARK   56  A    between atoms: _148  and  _149
REMARK   57  A    between atoms: _148  and  _151
REMARK   58  A    between atoms: _151  and  _152
REMARK   59  A    between atoms: _157  and  _159
REMARK   60  A    between atoms: _159  and  _160
REMARK   61  A    between atoms: _159  and  _162
REMARK   62  A    between atoms: _162  and  _163
REMARK   63  A    between atoms: _168  and  _170
REMARK   64  A    between atoms: _170  and  _171
REMARK   65  A    between atoms: _170  and  _173
REMARK   66  A    between atoms: _173  and  _174
REMARK   67  A    between atoms: _179  and  _180
REMARK   68  A    between atoms: _182  and  _184
REMARK   69  A    between atoms: _184  and  _185
REMARK   70  A    between atoms: _184  and  _187
REMARK   71  A    between atoms: _187  and  _188
REMARK   72  A    between atoms: _193  and  _194
REMARK   73  A    between atoms: _196  and  _198
REMARK   74  A    between atoms: _198  and  _199
REMARK   75  A    between atoms: _198  and  _201
REMARK   76  A    between atoms: _201  and  _202
REMARK   77  A    between atoms: _202  and  _203
REMARK   78  A    between atoms: _205  and  _207
REMARK   79  A    between atoms: _207  and  _208
REMARK   80  A    between atoms: _207  and  _210
REMARK   81  A    between atoms: _210  and  _211
REMARK   82  A    between atoms: _221  and  _223
REMARK   83  A    between atoms: _223  and  _224
REMARK   84  A    between atoms: _223  and  _226
REMARK   85  A    between atoms: _226  and  _227
REMARK   86  A    between atoms: _230  and  _232
REMARK   87  A    between atoms: _232  and  _233
REMARK   88  A    between atoms: _232  and  _235
REMARK   89  A    between atoms: _235  and  _236
REMARK   90  A    between atoms: _236  and  _237
REMARK   91  A    between atoms: _240  and  _242
REMARK   92  A    between atoms: _242  and  _243
REMARK   93  A    between atoms: _242  and  _245
REMARK   94  A    between atoms: _245  and  _246
REMARK   95  A    between atoms: _251  and  _253
REMARK   96  A    between atoms: _253  and  _254
REMARK   97  A    between atoms: _256  and  _258
REMARK   98  A    between atoms: _258  and  _259
REMARK   99  A    between atoms: _262  and  _264
REMARK  100  A    between atoms: _264  and  _265
REMARK  101  A    between atoms: _268  and  _270
REMARK  102  A    between atoms: _270  and  _271
REMARK  103  A    between atoms: _270  and  _273
REMARK  104  A    between atoms: _273  and  _274
REMARK  105  A    between atoms: _284  and  _286
REMARK  106  A    between atoms: _286  and  _287
REMARK  107  A    between atoms: _286  and  _289
REMARK  108  A    between atoms: _289  and  _290
REMARK  109  A    between atoms: _292  and  _294
REMARK  110  A    between atoms: _294  and  _295
REMARK  111  A    between atoms: _294  and  _297
REMARK  112  A    between atoms: _297  and  _298
REMARK  113  A    between atoms: _303  and  _305
REMARK  114  A    between atoms: _305  and  _306
REMARK  115  A    between atoms: _305  and  _308
REMARK  116  A    between atoms: _308  and  _309
REMARK  117  A    between atoms: _315  and  _317
REMARK  118  A    between atoms: _317  and  _318
REMARK  119  A    between atoms: _317  and  _320
REMARK  120  A    between atoms: _320  and  _321
REMARK  121  A    between atoms: _321  and  _322
REMARK  122  A    between atoms: _325  and  _327
REMARK  123  A    between atoms: _327  and  _328
REMARK  124  A    between atoms: _327  and  _330
REMARK  125  A    between atoms: _330  and  _331
REMARK  126  A    between atoms: _341  and  _343
REMARK  127  A    between atoms: _343  and  _344
REMARK  128  A    between atoms: _347  and  _349
REMARK  129  A    between atoms: _349  and  _350
REMARK  130  A    between atoms: _349  and  _352
REMARK  131  A    between atoms: _352  and  _353
REMARK  132  A    between atoms: _353  and  _354
REMARK  133  A    between atoms: _357  and  _359
REMARK  134  A    between atoms: _359  and  _360
REMARK  135  A    between atoms: _359  and  _362
REMARK  136  A    between atoms: _362  and  _363
REMARK  137  A    between atoms: _363  and  _364
REMARK  138  A    between atoms: _364  and  _365
REMARK  139  A    between atoms: _365  and  _366
REMARK  140  A    between atoms: _370  and  _372
REMARK  141  A    between atoms: _372  and  _373
REMARK  142  A    between atoms: _372  and  _375
REMARK  143  A    between atoms: _375  and  _376
REMARK                            x       y       z     vdW  Elec       q    Type
REMARK                         _______ _______ _______ _____ _____    ______ ____
ROOT
ATOM      1  CA  TYR A   2      -5.810  11.742  17.399  0.00  0.00    +0.153 C 
ENDROOT
BRANCH   1   4
ATOM      2  C   ASN A   1      -3.840  13.194  17.375  0.00  0.00    +0.239 C 
ATOM      3  O   ASN A   1      -3.394  12.726  18.422  0.00  0.00    -0.274 OA
ATOM      4  N   TYR A   2      -4.975  12.796  16.817  0.00  0.00    -0.297 N 
ATOM      5  H   TYR A   2      -5.284  13.249  15.933  0.00  0.00    +0.150 HD
BRANCH   2   6
ATOM      6  CA  ASN A   1      -3.099  14.322  16.676  0.00  0.00    +0.154 C 
BRANCH   6   7
ATOM      7  N   ASN A   1      -2.366  14.997  17.718  0.00  0.00    -0.238 NA
ATOM      8  H   ASN A   1      -1.465  14.589  18.039  0.00  0.00    +0.142 HD
ENDBRANCH   6   7
BRANCH   6   9
ATOM      9  CB  ASN A   1      -2.179  13.744  15.584  0.00  0.00    +0.111 C 
BRANCH   9  10
ATOM     10  CG  ASN A   1      -1.372  14.815  14.846  0.00  0.00    +0.221 C 
ATOM     11  OD1 ASN A   1      -1.643  16.007  14.947  0.00  0.00    -0.275 OA
ATOM     12  ND2 ASN A   1      -0.362  14.379  14.116  0.00  0.00    -0.329 N 
ATOM     13 HD21 ASN A   1      -0.165  13.359  14.056  0.00  0.00    +0.145 HD
ATOM     14 HD22 ASN A   1       0.237  15.055  13.601  0.00  0.00    +0.145 HD
ENDBRANCH   9  10
ENDBRANCH   6   9
ENDBRANCH   2   6
ENDBRANCH   1   4
BRANCH   1  15
ATOM     15  C   TYR A   2      -6.767  11.096  16.386  0.00  0.00    +0.241 C 
ATOM     16  N   TYR A   3      -6.804   9.754  16.393  0.00  0.00    -0.298 N 
ATOM     17  H   TYR A   3      -6.246   9.245  17.108  0.00  0.00    +0.150 HD
ATOM     18  O   TYR A   2      -7.455  11.810  15.618  0.00  0.00    -0.273 OA
BRANCH  16  19
ATOM     19  CA  TYR A   3      -7.594   8.977  15.441  0.00  0.00    +0.141 C 
BRANCH  19  20
ATOM     20  C   TYR A   3      -8.404   7.844  16.083  0.00  0.00    +0.227 C 
ATOM     21  O   TYR A   3      -9.551   7.623  15.684  0.00  0.00    -0.286 OA
ENDBRANCH  19  20
BRANCH  19  22
ATOM     22  CB  TYR A   3      -6.711   8.375  14.314  0.00  0.00    +0.054 C 
BRANCH  22  23
ATOM     23  CG  TYR A   3      -6.125   9.419  13.379  0.00  0.00    -0.020 A 
ATOM     24  CD2 TYR A   3      -4.900  10.020  13.649  0.00  0.00    -0.001 A 
ATOM     25  CE2 TYR A   3      -4.366  11.017  12.800  0.00  0.00    +0.036 A 
ATOM     26  CZ  TYR A   3      -5.084  11.398  11.678  0.00  0.00    +0.134 A 
ATOM     27  CE1 TYR A   3      -6.315  10.806  11.399  0.00  0.00    +0.036 A 
ATOM     28  CD1 TYR A   3      -6.825   9.835  12.251  0.00  0.00    -0.001 A 
BRANCH  26  29
ATOM     29  OH  TYR A   3      -4.602  12.368  10.830  0.00  0.00    -0.506 OA
ATOM     30  HH  TYR A   3      -3.725  12.688  11.161  0.00  0.00    +0.292 HD
ENDBRANCH  26  29
ENDBRANCH  22  23
ENDBRANCH  19  22
ENDBRANCH  16  19
ENDBRANCH   1  15
BRANCH   1  31
ATOM     31  CB  TYR A   2      -6.613  12.240  18.620  0.00  0.00    +0.055 C 
BRANCH  31  32
ATOM     32  CG  TYR A   2      -7.478  11.116  19.143  0.00  0.00    -0.020 A 
ATOM     33  CD2 TYR A   2      -6.957  10.172  20.027  0.00  0.00    -0.001 A 
ATOM     34  CE2 TYR A   2      -7.725   9.101  20.458  0.00  0.00    +0.036 A 
ATOM     35  CZ  TYR A   2      -9.029   8.968  20.007  0.00  0.00    +0.134 A 
ATOM     36  CE1 TYR A   2      -9.573   9.869  19.130  0.00  0.00    +0.036 A 
ATOM     37  CD1 TYR A   2      -8.796  10.947  18.688  0.00  0.00    -0.001 A 
BRANCH  35  38
ATOM     38  OH  TYR A   2      -9.764   7.903  20.451  0.00  0.00    -0.506 OA
ATOM     39  HH  TYR A   2     -10.570   8.233  20.921  0.00  0.00    +0.292 HD
ENDBRANCH  35  38
ENDBRANCH  31  32
ENDBRANCH   1  31
TORSDOF 14
REMARK  Name = ../refined-set-2016/1uz1/1uz1_pocket.pdb
REMARK  143 active torsions:
REMARK  status: ('A' for Active; 'I' for Inactive)
REMARK    1  A    between atoms: _1  and  _3
REMARK    2  A    between atoms: _3  and  _4
REMARK    3  A    between atoms: _7  and  _9
REMARK    4  A    between atoms: _9  and  _10
REMARK    5  A    between atoms: _9  and  _12
REMARK    6  A    between atoms: _12  and  _13
REMARK    7  A    between atoms: _16  and  _18
REMARK    8  A    between atoms: _18  and  _19
REMARK    9  A    between atoms: _22  and  _24
REMARK   10  A    between atoms: _24  and  _25
REMARK   11  A    between atoms: _24  and  _27
REMARK   12  A    between atoms: _27  and  _28
REMARK   13  A    between atoms: _28  and  _29
REMARK   14  A    between atoms: _34  and  _36
REMARK   15  A    between atoms: _36  and  _37
REMARK   16  A    between atoms: _36  and  _39
REMARK   17  A    between atoms: _39  and  _40
REMARK   18  A    between atoms: _40  and  _41
REMARK   19  A    between atoms: _41  and  _42
REMARK   20  A    between atoms: _51  and  _53
REMARK   21  A    between atoms: _53  and  _54
REMARK   22  A    between atoms: _53  and  _56
REMARK   23  A    between atoms: _56  and  _57
REMARK   24  A    between atoms: _60  and  _62
REMARK   25  A    between atoms: _62  and  _63
REMARK   26  A    between atoms: _62  and  _65
REMARK   27  A    between atoms: _65  and  _66
REMARK   28  A    between atoms: _71  and  _73
REMARK   29  A    between atoms: _73  and  _74
REMARK   30  A    between atoms: _73  and  _76
REMARK   31  A    between atoms: _76  and  _77
REMARK   32  A    between atoms: _87  and  _89
REMARK   33  A    between atoms: _89  and  _90
REMARK   34  A    between atoms: _89  and  _92
REMARK   35  A    between atoms: _92  and  _93
REMARK   36  A    between atoms: _98  and  _100
REMARK   37  A    between atoms: _100  and  _101
REMARK   38  A    between atoms: _100  and  _103
REMARK   39  A    between atoms: _103  and  _104
REMARK   40  A    between atoms: _104  and  _105
REMARK   41  A    between atoms: _108  and  _110
REMARK   42  A    between atoms: _110  and  _111
REMARK   43  A    between atoms: _110  and  _113
REMARK   44  A    between atoms: _116  and  _118
REMARK   45  A    between atoms: _118  and  _119
REMARK   46  A    between atoms: _118  and  _121
REMARK   47  A    between atoms: _121  and  _122
REMARK   48  A    between atoms: _127  and  _129
REMARK   49  A    between atoms: _129  and  _130
REMARK   50  A    between atoms: _129  and  _132
REMARK   51  A    between atoms: _135  and  _137
REMARK   52  A    between atoms: _137  and  _138
REMARK   53  A    between atoms: _137  and  _140
REMARK   54  A    between atoms: _140  and  _141
REMARK   55  A    between atoms: _146  and  _148
REMARK   56  A    between atoms: _148  and  _149
REMARK   57  A    between atoms: _148  and  _151
REMARK   58  A    between atoms: _151  and  _152
REMARK   59  A    between atoms: _157  and  _159
REMARK   60  A    between atoms: _159  and  _160
REMARK   61  A    between atoms: _159  and  _162
REMARK   62  A    between atoms: _162  and  _163
REMARK   63  A    between atoms: _168  and  _170
REMARK   64  A    between atoms: _170  and  _171
REMARK   65  A    between atoms: _170  and  _173
REMARK   66  A    between atoms: _173  and  _174
REMARK   67  A    between atoms: _179  and  _180
REMARK   68  A    between atoms: _182  and  _184
REMARK   69  A    between atoms: _184  and  _185
REMARK   70  A    between atoms: _184  and  _187
REMARK   71  A    between atoms: _187  and  _188
REMARK   72  A    between atoms: _193  and  _194
REMARK   73  A    between atoms: _196  and  _198
REMARK   74  A    between atoms: _198  and  _199
REMARK   75  A    between atoms: _198  and  _201
REMARK   76  A    between atoms: _201  and  _202
REMARK   77  A    between atoms: _202  and  _203
REMARK   78  A    between atoms: _205  and  _207
REMARK   79  A    between atoms: _207  and  _208
REMARK   80  A    between atoms: _207  and  _210
REMARK   81  A    between atoms: _210  and  _211
REMARK   82  A    between atoms: _221  and  _223
REMARK   83  A    between atoms: _223  and  _224
REMARK   84  A    between atoms: _223  and  _226
REMARK   85  A    between atoms: _226  and  _227
REMARK   86  A    between atoms: _230  and  _232
REMARK   87  A    between atoms: _232  and  _233
REMARK   88  A    between atoms: _232  and  _235
REMARK   89  A    between atoms: _235  and  _236
REMARK   90  A    between atoms: _236  and  _237
REMARK   91  A    between atoms: _240  and  _242
REMARK   92  A    between atoms: _242  and  _243
REMARK   93  A    between atoms: _242  and  _245
REMARK   94  A    between atoms: _245  and  _246
REMARK   95  A    between atoms: _251  and  _253
REMARK   96  A    between atoms: _253  and  _254
REMARK   97  A    between atoms: _256  and  _258
REMARK   98  A    between atoms: _258  and  _259
REMARK   99  A    between atoms: _262  and  _264
REMARK  100  A    between atoms: _264  and  _265
REMARK  101  A    between atoms: _268  and  _270
REMARK  102  A    between atoms: _270  and  _271
REMARK  103  A    between atoms: _270  and  _273
REMARK  104  A    between atoms: _273  and  _274
REMARK  105  A    between atoms: _284  and  _286
REMARK  106  A    between atoms: _286  and  _287
REMARK  107  A    between atoms: _286  and  _289
REMARK  108  A    between atoms: _289  and  _290
REMARK  109  A    between atoms: _292  and  _294
REMARK  110  A    between atoms: _294  and  _295
REMARK  111  A    between atoms: _294  and  _297
REMARK  112  A    between atoms: _297  and  _298
REMARK  113  A    between atoms: _303  and  _305
REMARK  114  A    between atoms: _305  and  _306
REMARK  115  A    between atoms: _305  and  _308
REMARK  116  A    between atoms: _308  and  _309
REMARK  117  A    between atoms: _315  and  _317
REMARK  118  A    between atoms: _317  and  _318
REMARK  119  A    between atoms: _317  and  _320
REMARK  120  A    between atoms: _320  and  _321
REMARK  121  A    between atoms: _321  and  _322
REMARK  122  A    between atoms: _325  and  _327
REMARK  123  A    between atoms: _327  and  _328
REMARK  124  A    between atoms: _327  and  _330
REMARK  125  A    between atoms: _330  and  _331
REMARK  126  A    between atoms: _341  and  _343
REMARK  127  A    between atoms: _343  and  _344
REMARK  128  A    between atoms: _347  and  _349
REMARK  129  A    between atoms: _349  and  _350
REMARK  130  A    between atoms: _349  and  _352
REMARK  131  A    between atoms: _352  and  _353
REMARK  132  A    between atoms: _353  and  _354
REMARK  133  A    between atoms: _357  and  _359
REMARK  134  A    between atoms: _359  and  _360
REMARK  135  A    between atoms: _359  and  _362
REMARK  136  A    between atoms: _362  and  _363
REMARK  137  A    between atoms: _363  and  _364
REMARK  138  A    between atoms: _364  and  _365
REMARK  139  A    between atoms: _365  and  _366
REMARK  140  A    between atoms: _370  and  _372
REMARK  141  A    between atoms: _372  and  _373
REMARK  142  A    between atoms: _372  and  _375
REMARK  143  A    between atoms: _375  and  _376
REMARK                            x       y       z     vdW  Elec       q    Type
REMARK                         _______ _______ _______ _____ _____    ______ ____
ROOT
ATOM      1  CA  MET A   1      -7.763   1.597   8.186  0.00  0.00    +0.134 C 
ENDROOT
BRANCH   1   2
ATOM      2  N   MET A   1      -9.066   1.992   7.644  0.00  0.00    -0.239 NA
ATOM      3  H   MET A   1      -9.533   2.849   8.004  0.00  0.00    +0.142 HD
ENDBRANCH   1   2
BRANCH   1   4
ATOM      4  C   MET A   1      -7.882   0.406   9.140  0.00  0.00    +0.224 C 
ATOM      5  O   MET A   1      -6.869  -0.191   9.511  0.00  0.00    -0.287 OA
ENDBRANCH   1   4
BRANCH   1   6
ATOM      6  CB  MET A   1      -7.113   2.743   8.966  0.00  0.00    +0.037 C 
BRANCH   6   7
ATOM      7  CG  MET A   1      -6.883   4.027   8.191  0.00  0.00    +0.059 C 
BRANCH   7   8
ATOM      8  SD  MET A   1      -5.732   3.937   6.820  0.00  0.00    -0.139 S 
ATOM      9  CE  MET A   1      -4.138   3.668   7.581  0.00  0.00    +0.069 C 
ENDBRANCH   7   8
ENDBRANCH   6   7
ENDBRANCH   1   6
TORSDOF 5
REMARK  Name = ../refined-set-2016/1uz1/1uz1_pocket.pdb
REMARK  143 active torsions:
REMARK  status: ('A' for Active; 'I' for Inactive)
REMARK    1  A    between atoms: _1  and  _3
REMARK    2  A    between atoms: _3  and  _4
REMARK    3  A    between atoms: _7  and  _9
REMARK    4  A    between atoms: _9  and  _10
REMARK    5  A    between atoms: _9  and  _12
REMARK    6  A    between atoms: _12  and  _13
REMARK    7  A    between atoms: _16  and  _18
REMARK    8  A    between atoms: _18  and  _19
REMARK    9  A    between atoms: _22  and  _24
REMARK   10  A    between atoms: _24  and  _25
REMARK   11  A    between atoms: _24  and  _27
REMARK   12  A    between atoms: _27  and  _28
REMARK   13  A    between atoms: _28  and  _29
REMARK   14  A    between atoms: _34  and  _36
REMARK   15  A    between atoms: _36  and  _37
REMARK   16  A    between atoms: _36  and  _39
REMARK   17  A    between atoms: _39  and  _40
REMARK   18  A    between atoms: _40  and  _41
REMARK   19  A    between atoms: _41  and  _42
REMARK   20  A    between atoms: _51  and  _53
REMARK   21  A    between atoms: _53  and  _54
REMARK   22  A    between atoms: _53  and  _56
REMARK   23  A    between atoms: _56  and  _57
REMARK   24  A    between atoms: _60  and  _62
REMARK   25  A    between atoms: _62  and  _63
REMARK   26  A    between atoms: _62  and  _65
REMARK   27  A    between atoms: _65  and  _66
REMARK   28  A    between atoms: _71  and  _73
REMARK   29  A    between atoms: _73  and  _74
REMARK   30  A    between atoms: _73  and  _76
REMARK   31  A    between atoms: _76  and  _77
REMARK   32  A    between atoms: _87  and  _89
REMARK   33  A    between atoms: _89  and  _90
REMARK   34  A    between atoms: _89  and  _92
REMARK   35  A    between atoms: _92  and  _93
REMARK   36  A    between atoms: _98  and  _100
REMARK   37  A    between atoms: _100  and  _101
REMARK   38  A    between atoms: _100  and  _103
REMARK   39  A    between atoms: _103  and  _104
REMARK   40  A    between atoms: _104  and  _105
REMARK   41  A    between atoms: _108  and  _110
REMARK   42  A    between atoms: _110  and  _111
REMARK   43  A    between atoms: _110  and  _113
REMARK   44  A    between atoms: _116  and  _118
REMARK   45  A    between atoms: _118  and  _119
REMARK   46  A    between atoms: _118  and  _121
REMARK   47  A    between atoms: _121  and  _122
REMARK   48  A    between atoms: _127  and  _129
REMARK   49  A    between atoms: _129  and  _130
REMARK   50  A    between atoms: _129  and  _132
REMARK   51  A    between atoms: _135  and  _137
REMARK   52  A    between atoms: _137  and  _138
REMARK   53  A    between atoms: _137  and  _140
REMARK   54  A    between atoms: _140  and  _141
REMARK   55  A    between atoms: _146  and  _148
REMARK   56  A    between atoms: _148  and  _149
REMARK   57  A    between atoms: _148  and  _151
REMARK   58  A    between atoms: _151  and  _152
REMARK   59  A    between atoms: _157  and  _159
REMARK   60  A    between atoms: _159  and  _160
REMARK   61  A    between atoms: _159  and  _162
REMARK   62  A    between atoms: _162  and  _163
REMARK   63  A    between atoms: _168  and  _170
REMARK   64  A    between atoms: _170  and  _171
REMARK   65  A    between atoms: _170  and  _173
REMARK   66  A    between atoms: _173  and  _174
REMARK   67  A    between atoms: _179  and  _180
REMARK   68  A    between atoms: _182  and  _184
REMARK   69  A    between atoms: _184  and  _185
REMARK   70  A    between atoms: _184  and  _187
REMARK   71  A    between atoms: _187  and  _188
REMARK   72  A    between atoms: _193  and  _194
REMARK   73  A    between atoms: _196  and  _198
REMARK   74  A    between atoms: _198  and  _199
REMARK   75  A    between atoms: _198  and  _201
REMARK   76  A    between atoms: _201  and  _202
REMARK   77  A    between atoms: _202  and  _203
REMARK   78  A    between atoms: _205  and  _207
REMARK   79  A    between atoms: _207  and  _208
REMARK   80  A    between atoms: _207  and  _210
REMARK   81  A    between atoms: _210  and  _211
REMARK   82  A    between atoms: _221  and  _223
REMARK   83  A    between atoms: _223  and  _224
REMARK   84  A    between atoms: _223  and  _226
REMARK   85  A    between atoms: _226  and  _227
REMARK   86  A    between atoms: _230  and  _232
REMARK   87  A    between atoms: _232  and  _233
REMARK   88  A    between atoms: _232  and  _235
REMARK   89  A    between atoms: _235  and  _236
REMARK   90  A    between atoms: _236  and  _237
REMARK   91  A    between atoms: _240  and  _242
REMARK   92  A    between atoms: _242  and  _243
REMARK   93  A    between atoms: _242  and  _245
REMARK   94  A    between atoms: _245  and  _246
REMARK   95  A    between atoms: _251  and  _253
REMARK   96  A    between atoms: _253  and  _254
REMARK   97  A    between atoms: _256  and  _258
REMARK   98  A    between atoms: _258  and  _259
REMARK   99  A    between atoms: _262  and  _264
REMARK  100  A    between atoms: _264  and  _265
REMARK  101  A    between atoms: _268  and  _270
REMARK  102  A    between atoms: _270  and  _271
REMARK  103  A    between atoms: _270  and  _273
REMARK  104  A    between atoms: _273  and  _274
REMARK  105  A    between atoms: _284  and  _286
REMARK  106  A    between atoms: _286  and  _287
REMARK  107  A    between atoms: _286  and  _289
REMARK  108  A    between atoms: _289  and  _290
REMARK  109  A    between atoms: _292  and  _294
REMARK  110  A    between atoms: _294  and  _295
REMARK  111  A    between atoms: _294  and  _297
REMARK  112  A    between atoms: _297  and  _298
REMARK  113  A    between atoms: _303  and  _305
REMARK  114  A    between atoms: _305  and  _306
REMARK  115  A    between atoms: _305  and  _308
REMARK  116  A    between atoms: _308  and  _309
REMARK  117  A    between atoms: _315  and  _317
REMARK  118  A    between atoms: _317  and  _318
REMARK  119  A    between atoms: _317  and  _320
REMARK  120  A    between atoms: _320  and  _321
REMARK  121  A    between atoms: _321  and  _322
REMARK  122  A    between atoms: _325  and  _327
REMARK  123  A    between atoms: _327  and  _328
REMARK  124  A    between atoms: _327  and  _330
REMARK  125  A    between atoms: _330  and  _331
REMARK  126  A    between atoms: _341  and  _343
REMARK  127  A    between atoms: _343  and  _344
REMARK  128  A    between atoms: _347  and  _349
REMARK  129  A    between atoms: _349  and  _350
REMARK  130  A    between atoms: _349  and  _352
REMARK  131  A    between atoms: _352  and  _353
REMARK  132  A    between atoms: _353  and  _354
REMARK  133  A    between atoms: _357  and  _359
REMARK  134  A    between atoms: _359  and  _360
REMARK  135  A    between atoms: _359  and  _362
REMARK  136  A    between atoms: _362  and  _363
REMARK  137  A    between atoms: _363  and  _364
REMARK  138  A    between atoms: _364  and  _365
REMARK  139  A    between atoms: _365  and  _366
REMARK  140  A    between atoms: _370  and  _372
REMARK  141  A    between atoms: _372  and  _373
REMARK  142  A    between atoms: _372  and  _375
REMARK  143  A    between atoms: _375  and  _376
REMARK                            x       y       z     vdW  Elec       q    Type
REMARK                         _______ _______ _______ _____ _____    ______ ____
ROOT
ATOM      1  CG  TRP A   1      -6.974   3.101  12.552  0.00  0.00    -0.002 A 
ATOM      2  CD1 TRP A   1      -6.126   2.042  12.396  0.00  0.00    +0.068 A 
ATOM      3  NE1 TRP A   1      -4.958   2.450  11.799  0.00  0.00    -0.352 N 
ATOM      4  CE2 TRP A   1      -5.020   3.804  11.583  0.00  0.00    +0.056 A 
ATOM      5  CZ2 TRP A   1      -4.069   4.675  11.030  0.00  0.00    +0.017 A 
ATOM      6  CH2 TRP A   1      -4.407   6.009  10.916  0.00  0.00    +0.001 A 
ATOM      7  CZ3 TRP A   1      -5.647   6.484  11.363  0.00  0.00    +0.000 A 
ATOM      8  CE3 TRP A   1      -6.595   5.609  11.931  0.00  0.00    +0.001 A 
ATOM      9  HE1 TRP A   1      -4.158   1.834  11.551  0.00  0.00    +0.166 HD
ATOM     10  CD2 TRP A   1      -6.278   4.246  12.046  0.00  0.00    +0.013 A 
ENDROOT
BRANCH   1  11
ATOM     11  CB  TRP A   1      -8.361   3.086  13.168  0.00  0.00    +0.053 C 
BRANCH  11  12
ATOM     12  CA  TRP A   1      -8.977   1.693  13.390  0.00  0.00    +0.137 C 
BRANCH  12  13
ATOM     13  N   TRP A   1      -9.178   1.025  12.118  0.00  0.00    -0.239 NA
ATOM     14  H   TRP A   1      -9.340   1.597  11.265  0.00  0.00    +0.142 HD
ENDBRANCH  12  13
BRANCH  12  15
ATOM     15  C   TRP A   1     -10.338   1.836  14.065  0.00  0.00    +0.224 C 
ATOM     16  O   TRP A   1     -11.269   2.408  13.485  0.00  0.00    -0.287 OA
ENDBRANCH  12  15
ENDBRANCH  11  12
ENDBRANCH   1  11
TORSDOF 4
REMARK  Name = ../refined-set-2016/1uz1/1uz1_pocket.pdb
REMARK  143 active torsions:
REMARK  status: ('A' for Active; 'I' for Inactive)
REMARK    1  A    between atoms: _1  and  _3
REMARK    2  A    between atoms: _3  and  _4
REMARK    3  A    between atoms: _7  and  _9
REMARK    4  A    between atoms: _9  and  _10
REMARK    5  A    between atoms: _9  and  _12
REMARK    6  A    between atoms: _12  and  _13
REMARK    7  A    between atoms: _16  and  _18
REMARK    8  A    between atoms: _18  and  _19
REMARK    9  A    between atoms: _22  and  _24
REMARK   10  A    between atoms: _24  and  _25
REMARK   11  A    between atoms: _24  and  _27
REMARK   12  A    between atoms: _27  and  _28
REMARK   13  A    between atoms: _28  and  _29
REMARK   14  A    between atoms: _34  and  _36
REMARK   15  A    between atoms: _36  and  _37
REMARK   16  A    between atoms: _36  and  _39
REMARK   17  A    between atoms: _39  and  _40
REMARK   18  A    between atoms: _40  and  _41
REMARK   19  A    between atoms: _41  and  _42
REMARK   20  A    between atoms: _51  and  _53
REMARK   21  A    between atoms: _53  and  _54
REMARK   22  A    between atoms: _53  and  _56
REMARK   23  A    between atoms: _56  and  _57
REMARK   24  A    between atoms: _60  and  _62
REMARK   25  A    between atoms: _62  and  _63
REMARK   26  A    between atoms: _62  and  _65
REMARK   27  A    between atoms: _65  and  _66
REMARK   28  A    between atoms: _71  and  _73
REMARK   29  A    between atoms: _73  and  _74
REMARK   30  A    between atoms: _73  and  _76
REMARK   31  A    between atoms: _76  and  _77
REMARK   32  A    between atoms: _87  and  _89
REMARK   33  A    between atoms: _89  and  _90
REMARK   34  A    between atoms: _89  and  _92
REMARK   35  A    between atoms: _92  and  _93
REMARK   36  A    between atoms: _98  and  _100
REMARK   37  A    between atoms: _100  and  _101
REMARK   38  A    between atoms: _100  and  _103
REMARK   39  A    between atoms: _103  and  _104
REMARK   40  A    between atoms: _104  and  _105
REMARK   41  A    between atoms: _108  and  _110
REMARK   42  A    between atoms: _110  and  _111
REMARK   43  A    between atoms: _110  and  _113
REMARK   44  A    between atoms: _116  and  _118
REMARK   45  A    between atoms: _118  and  _119
REMARK   46  A    between atoms: _118  and  _121
REMARK   47  A    between atoms: _121  and  _122
REMARK   48  A    between atoms: _127  and  _129
REMARK   49  A    between atoms: _129  and  _130
REMARK   50  A    between atoms: _129  and  _132
REMARK   51  A    between atoms: _135  and  _137
REMARK   52  A    between atoms: _137  and  _138
REMARK   53  A    between atoms: _137  and  _140
REMARK   54  A    between atoms: _140  and  _141
REMARK   55  A    between atoms: _146  and  _148
REMARK   56  A    between atoms: _148  and  _149
REMARK   57  A    between atoms: _148  and  _151
REMARK   58  A    between atoms: _151  and  _152
REMARK   59  A    between atoms: _157  and  _159
REMARK   60  A    between atoms: _159  and  _160
REMARK   61  A    between atoms: _159  and  _162
REMARK   62  A    between atoms: _162  and  _163
REMARK   63  A    between atoms: _168  and  _170
REMARK   64  A    between atoms: _170  and  _171
REMARK   65  A    between atoms: _170  and  _173
REMARK   66  A    between atoms: _173  and  _174
REMARK   67  A    between atoms: _179  and  _180
REMARK   68  A    between atoms: _182  and  _184
REMARK   69  A    between atoms: _184  and  _185
REMARK   70  A    between atoms: _184  and  _187
REMARK   71  A    between atoms: _187  and  _188
REMARK   72  A    between atoms: _193  and  _194
REMARK   73  A    between atoms: _196  and  _198
REMARK   74  A    between atoms: _198  and  _199
REMARK   75  A    between atoms: _198  and  _201
REMARK   76  A    between atoms: _201  and  _202
REMARK   77  A    between atoms: _202  and  _203
REMARK   78  A    between atoms: _205  and  _207
REMARK   79  A    between atoms: _207  and  _208
REMARK   80  A    between atoms: _207  and  _210
REMARK   81  A    between atoms: _210  and  _211
REMARK   82  A    between atoms: _221  and  _223
REMARK   83  A    between atoms: _223  and  _224
REMARK   84  A    between atoms: _223  and  _226
REMARK   85  A    between atoms: _226  and  _227
REMARK   86  A    between atoms: _230  and  _232
REMARK   87  A    between atoms: _232  and  _233
REMARK   88  A    between atoms: _232  and  _235
REMARK   89  A    between atoms: _235  and  _236
REMARK   90  A    between atoms: _236  and  _237
REMARK   91  A    between atoms: _240  and  _242
REMARK   92  A    between atoms: _242  and  _243
REMARK   93  A    between atoms: _242  and  _245
REMARK   94  A    between atoms: _245  and  _246
REMARK   95  A    between atoms: _251  and  _253
REMARK   96  A    between atoms: _253  and  _254
REMARK   97  A    between atoms: _256  and  _258
REMARK   98  A    between atoms: _258  and  _259
REMARK   99  A    between atoms: _262  and  _264
REMARK  100  A    between atoms: _264  and  _265
REMARK  101  A    between atoms: _268  and  _270
REMARK  102  A    between atoms: _270  and  _271
REMARK  103  A    between atoms: _270  and  _273
REMARK  104  A    between atoms: _273  and  _274
REMARK  105  A    between atoms: _284  and  _286
REMARK  106  A    between atoms: _286  and  _287
REMARK  107  A    between atoms: _286  and  _289
REMARK  108  A    between atoms: _289  and  _290
REMARK  109  A    between atoms: _292  and  _294
REMARK  110  A    between atoms: _294  and  _295
REMARK  111  A    between atoms: _294  and  _297
REMARK  112  A    between atoms: _297  and  _298
REMARK  113  A    between atoms: _303  and  _305
REMARK  114  A    between atoms: _305  and  _306
REMARK  115  A    between atoms: _305  and  _308
REMARK  116  A    between atoms: _308  and  _309
REMARK  117  A    between atoms: _315  and  _317
REMARK  118  A    between atoms: _317  and  _318
REMARK  119  A    between atoms: _317  and  _320
REMARK  120  A    between atoms: _320  and  _321
REMARK  121  A    between atoms: _321  and  _322
REMARK  122  A    between atoms: _325  and  _327
REMARK  123  A    between atoms: _327  and  _328
REMARK  124  A    between atoms: _327  and  _330
REMARK  125  A    between atoms: _330  and  _331
REMARK  126  A    between atoms: _341  and  _343
REMARK  127  A    between atoms: _343  and  _344
REMARK  128  A    between atoms: _347  and  _349
REMARK  129  A    between atoms: _349  and  _350
REMARK  130  A    between atoms: _349  and  _352
REMARK  131  A    between atoms: _352  and  _353
REMARK  132  A    between atoms: _353  and  _354
REMARK  133  A    between atoms: _357  and  _359
REMARK  134  A    between atoms: _359  and  _360
REMARK  135  A    between atoms: _359  and  _362
REMARK  136  A    between atoms: _362  and  _363
REMARK  137  A    between atoms: _363  and  _364
REMARK  138  A    between atoms: _364  and  _365
REMARK  139  A    between atoms: _365  and  _366
REMARK  140  A    between atoms: _370  and  _372
REMARK  141  A    between atoms: _372  and  _373
REMARK  142  A    between atoms: _372  and  _375
REMARK  143  A    between atoms: _375  and  _376
REMARK                            x       y       z     vdW  Elec       q    Type
REMARK                         _______ _______ _______ _____ _____    ______ ____
ROOT
ATOM      1  CA  ASN A   3      -8.249  14.361  13.418  0.00  0.00    +0.158 C 
ENDROOT
BRANCH   1   2
ATOM      2  C   ASN A   3      -8.982  14.077  12.102  0.00  0.00    +0.241 C 
ATOM      3  N   GLY A   4      -9.242  12.806  11.805  0.00  0.00    -0.295 N 
ATOM      4  H   GLY A   4      -8.994  12.063  12.489  0.00  0.00    +0.150 HD
ATOM      5  O   ASN A   3      -9.260  14.998  11.338  0.00  0.00    -0.273 OA
BRANCH   3   6
ATOM      6  CA  GLY A   4      -9.862  12.437  10.552  0.00  0.00    +0.176 C 
BRANCH   6   7
ATOM      7  C   GLY A   4     -10.045  10.955  10.425  0.00  0.00    +0.243 C 
ATOM      8  O   GLY A   4      -9.748  10.184  11.358  0.00  0.00    -0.273 OA
ATOM      9  N   ALA A   5     -10.532  10.542   9.267  0.00  0.00    -0.297 N 
ATOM     10  H   ALA A   5     -10.682  11.233   8.504  0.00  0.00    +0.150 HD
BRANCH   9  11
ATOM     11  CA  ALA A   5     -10.864   9.137   9.034  0.00  0.00    +0.149 C 
ATOM     12  CB  ALA A   5     -12.243   8.790   9.642  0.00  0.00    +0.031 C 
BRANCH  11  13
ATOM     13  C   ALA A   5     -10.811   8.736   7.562  0.00  0.00    +0.241 C 
ATOM     14  N   ALA A   6     -10.351   7.507   7.332  0.00  0.00    -0.298 N 
ATOM     15  H   ALA A   6      -9.957   6.964   8.127  0.00  0.00    +0.150 HD
ATOM     16  O   ALA A   5     -11.184   9.516   6.671  0.00  0.00    -0.273 OA
BRANCH  14  17
ATOM     17  CA  ALA A   6     -10.379   6.898   6.019  0.00  0.00    +0.137 C 
ATOM     18  CB  ALA A   6      -9.142   6.041   5.803  0.00  0.00    +0.030 C 
BRANCH  17  19
ATOM     19  C   ALA A   6     -11.627   6.055   5.847  0.00  0.00    +0.227 C 
ATOM     20  O   ALA A   6     -11.893   5.147   6.642  0.00  0.00    -0.286 OA
ENDBRANCH  17  19
ENDBRANCH  14  17
ENDBRANCH  11  13
ENDBRANCH   9  11
ENDBRANCH   6   7
ENDBRANCH   3   6
ENDBRANCH   1   2
BRANCH   1  23
ATOM     21  C   GLU A   2      -6.045  15.493  13.759  0.00  0.00    +0.241 C 
ATOM     22  O   GLU A   2      -5.841  15.049  14.869  0.00  0.00    -0.273 OA
ATOM     23  N   ASN A   3      -7.180  15.322  13.068  0.00  0.00    -0.297 N 
ATOM     24  H   ASN A   3      -7.320  15.909  12.221  0.00  0.00    +0.150 HD
BRANCH  21  25
ATOM     25  CA  GLU A   2      -4.961  16.288  13.072  0.00  0.00    +0.149 C 
BRANCH  25  27
ATOM     26  C   THR A   1      -3.738  18.336  13.700  0.00  0.00    +0.241 C 
ATOM     27  N   GLU A   2      -4.449  17.259  14.032  0.00  0.00    -0.297 N 
ATOM     28  H   GLU A   2      -4.652  17.101  15.040  0.00  0.00    +0.150 HD
ATOM     29  O   THR A   1      -3.325  18.556  12.554  0.00  0.00    -0.274 OA
BRANCH  26  30
ATOM     30  CA  THR A   1      -3.440  19.329  14.826  0.00  0.00    +0.172 C 
BRANCH  30  31
ATOM     31  CB  THR A   1      -1.902  19.502  15.018  0.00  0.00    +0.135 C 
ATOM     32  CG2 THR A   1      -1.570  20.841  15.639  0.00  0.00    +0.034 C 
BRANCH  31  33
ATOM     33  OG1 THR A   1      -1.459  18.573  16.005  0.00  0.00    -0.383 OA
ATOM     34  HG1 THR A   1      -1.660  17.652  15.703  0.00  0.00    +0.210 HD
ENDBRANCH  31  33
ENDBRANCH  30  31
BRANCH  30  35
ATOM     35  N   THR A   1      -4.107  19.013  16.110  0.00  0.00    -0.236 NA
ATOM     36  H   THR A   1      -3.667  18.340  16.770  0.00  0.00    +0.142 HD
ENDBRANCH  30  35
ENDBRANCH  26  30
ENDBRANCH  25  27
BRANCH  25  37
ATOM     37  CB  GLU A   2      -3.887  15.263  12.631  0.00  0.00    +0.041 C 
BRANCH  37  38
ATOM     38  CG  GLU A   2      -2.746  15.819  11.807  0.00  0.00    +0.116 C 
BRANCH  38  39
ATOM     39  CD  GLU A   2      -1.799  14.753  11.275  0.00  0.00    +0.365 C 
ATOM     40  OE2 GLU A   2      -2.208  13.584  11.143  0.00  0.00    -0.246 OA
ATOM     41  OE1 GLU A   2      -0.640  15.098  10.992  0.00  0.00    -0.246 OA
ENDBRANCH  38  39
ENDBRANCH  37  38
ENDBRANCH  25  37
ENDBRANCH  21  25
ENDBRANCH   1  23
BRANCH   1  42
ATOM     42  CB  ASN A   3      -9.195  14.927  14.509  0.00  0.00    +0.114 C 
BRANCH  42  43
ATOM     43  CG  ASN A   3     -10.390  13.996  14.828  0.00  0.00    +0.222 C 
ATOM     44  ND2 ASN A   3     -10.120  12.793  15.309  0.00  0.00    -0.329 N 
ATOM     45 HD21 ASN A   3     -10.895  12.141  15.545  0.00  0.00    +0.145 HD
ATOM     46 HD22 ASN A   3      -9.132  12.499  15.451  0.00  0.00    +0.145 HD
ATOM     47  OD1 ASN A   3     -11.531  14.389  14.643  0.00  0.00    -0.275 OA
ENDBRANCH  42  43
ENDBRANCH   1  42
TORSDOF 19
REMARK  Name = ../refined-set-2016/1uz1/1uz1_pocket.pdb
REMARK  143 active torsions:
REMARK  status: ('A' for Active; 'I' for Inactive)
REMARK    1  A    between atoms: _1  and  _3
REMARK    2  A    between atoms: _3  and  _4
REMARK    3  A    between atoms: _7  and  _9
REMARK    4  A    between atoms: _9  and  _10
REMARK    5  A    between atoms: _9  and  _12
REMARK    6  A    between atoms: _12  and  _13
REMARK    7  A    between atoms: _16  and  _18
REMARK    8  A    between atoms: _18  and  _19
REMARK    9  A    between atoms: _22  and  _24
REMARK   10  A    between atoms: _24  and  _25
REMARK   11  A    between atoms: _24  and  _27
REMARK   12  A    between atoms: _27  and  _28
REMARK   13  A    between atoms: _28  and  _29
REMARK   14  A    between atoms: _34  and  _36
REMARK   15  A    between atoms: _36  and  _37
REMARK   16  A    between atoms: _36  and  _39
REMARK   17  A    between atoms: _39  and  _40
REMARK   18  A    between atoms: _40  and  _41
REMARK   19  A    between atoms: _41  and  _42
REMARK   20  A    between atoms: _51  and  _53
REMARK   21  A    between atoms: _53  and  _54
REMARK   22  A    between atoms: _53  and  _56
REMARK   23  A    between atoms: _56  and  _57
REMARK   24  A    between atoms: _60  and  _62
REMARK   25  A    between atoms: _62  and  _63
REMARK   26  A    between atoms: _62  and  _65
REMARK   27  A    between atoms: _65  and  _66
REMARK   28  A    between atoms: _71  and  _73
REMARK   29  A    between atoms: _73  and  _74
REMARK   30  A    between atoms: _73  and  _76
REMARK   31  A    between atoms: _76  and  _77
REMARK   32  A    between atoms: _87  and  _89
REMARK   33  A    between atoms: _89  and  _90
REMARK   34  A    between atoms: _89  and  _92
REMARK   35  A    between atoms: _92  and  _93
REMARK   36  A    between atoms: _98  and  _100
REMARK   37  A    between atoms: _100  and  _101
REMARK   38  A    between atoms: _100  and  _103
REMARK   39  A    between atoms: _103  and  _104
REMARK   40  A    between atoms: _104  and  _105
REMARK   41  A    between atoms: _108  and  _110
REMARK   42  A    between atoms: _110  and  _111
REMARK   43  A    between atoms: _110  and  _113
REMARK   44  A    between atoms: _116  and  _118
REMARK   45  A    between atoms: _118  and  _119
REMARK   46  A    between atoms: _118  and  _121
REMARK   47  A    between atoms: _121  and  _122
REMARK   48  A    between atoms: _127  and  _129
REMARK   49  A    between atoms: _129  and  _130
REMARK   50  A    between atoms: _129  and  _132
REMARK   51  A    between atoms: _135  and  _137
REMARK   52  A    between atoms: _137  and  _138
REMARK   53  A    between atoms: _137  and  _140
REMARK   54  A    between atoms: _140  and  _141
REMARK   55  A    between atoms: _146  and  _148
REMARK   56  A    between atoms: _148  and  _149
REMARK   57  A    between atoms: _148  and  _151
REMARK   58  A    between atoms: _151  and  _152
REMARK   59  A    between atoms: _157  and  _159
REMARK   60  A    between atoms: _159  and  _160
REMARK   61  A    between atoms: _159  and  _162
REMARK   62  A    between atoms: _162  and  _163
REMARK   63  A    between atoms: _168  and  _170
REMARK   64  A    between atoms: _170  and  _171
REMARK   65  A    between atoms: _170  and  _173
REMARK   66  A    between atoms: _173  and  _174
REMARK   67  A    between atoms: _179  and  _180
REMARK   68  A    between atoms: _182  and  _184
REMARK   69  A    between atoms: _184  and  _185
REMARK   70  A    between atoms: _184  and  _187
REMARK   71  A    between atoms: _187  and  _188
REMARK   72  A    between atoms: _193  and  _194
REMARK   73  A    between atoms: _196  and  _198
REMARK   74  A    between atoms: _198  and  _199
REMARK   75  A    between atoms: _198  and  _201
REMARK   76  A    between atoms: _201  and  _202
REMARK   77  A    between atoms: _202  and  _203
REMARK   78  A    between atoms: _205  and  _207
REMARK   79  A    between atoms: _207  and  _208
REMARK   80  A    between atoms: _207  and  _210
REMARK   81  A    between atoms: _210  and  _211
REMARK   82  A    between atoms: _221  and  _223
REMARK   83  A    between atoms: _223  and  _224
REMARK   84  A    between atoms: _223  and  _226
REMARK   85  A    between atoms: _226  and  _227
REMARK   86  A    between atoms: _230  and  _232
REMARK   87  A    between atoms: _232  and  _233
REMARK   88  A    between atoms: _232  and  _235
REMARK   89  A    between atoms: _235  and  _236
REMARK   90  A    between atoms: _236  and  _237
REMARK   91  A    between atoms: _240  and  _242
REMARK   92  A    between atoms: _242  and  _243
REMARK   93  A    between atoms: _242  and  _245
REMARK   94  A    between atoms: _245  and  _246
REMARK   95  A    between atoms: _251  and  _253
REMARK   96  A    between atoms: _253  and  _254
REMARK   97  A    between atoms: _256  and  _258
REMARK   98  A    between atoms: _258  and  _259
REMARK   99  A    between atoms: _262  and  _264
REMARK  100  A    between atoms: _264  and  _265
REMARK  101  A    between atoms: _268  and  _270
REMARK  102  A    between atoms: _270  and  _271
REMARK  103  A    between atoms: _270  and  _273
REMARK  104  A    between atoms: _273  and  _274
REMARK  105  A    between atoms: _284  and  _286
REMARK  106  A    between atoms: _286  and  _287
REMARK  107  A    between atoms: _286  and  _289
REMARK  108  A    between atoms: _289  and  _290
REMARK  109  A    between atoms: _292  and  _294
REMARK  110  A    between atoms: _294  and  _295
REMARK  111  A    between atoms: _294  and  _297
REMARK  112  A    between atoms: _297  and  _298
REMARK  113  A    between atoms: _303  and  _305
REMARK  114  A    between atoms: _305  and  _306
REMARK  115  A    between atoms: _305  and  _308
REMARK  116  A    between atoms: _308  and  _309
REMARK  117  A    between atoms: _315  and  _317
REMARK  118  A    between atoms: _317  and  _318
REMARK  119  A    between atoms: _317  and  _320
REMARK  120  A    between atoms: _320  and  _321
REMARK  121  A    between atoms: _321  and  _322
REMARK  122  A    between atoms: _325  and  _327
REMARK  123  A    between atoms: _327  and  _328
REMARK  124  A    between atoms: _327  and  _330
REMARK  125  A    between atoms: _330  and  _331
REMARK  126  A    between atoms: _341  and  _343
REMARK  127  A    between atoms: _343  and  _344
REMARK  128  A    between atoms: _347  and  _349
REMARK  129  A    between atoms: _349  and  _350
REMARK  130  A    between atoms: _349  and  _352
REMARK  131  A    between atoms: _352  and  _353
REMARK  132  A    between atoms: _353  and  _354
REMARK  133  A    between atoms: _357  and  _359
REMARK  134  A    between atoms: _359  and  _360
REMARK  135  A    between atoms: _359  and  _362
REMARK  136  A    between atoms: _362  and  _363
REMARK  137  A    between atoms: _363  and  _364
REMARK  138  A    between atoms: _364  and  _365
REMARK  139  A    between atoms: _365  and  _366
REMARK  140  A    between atoms: _370  and  _372
REMARK  141  A    between atoms: _372  and  _373
REMARK  142  A    between atoms: _372  and  _375
REMARK  143  A    between atoms: _375  and  _376
REMARK                            x       y       z     vdW  Elec       q    Type
REMARK                         _______ _______ _______ _____ _____    ______ ____
ROOT
ATOM      1  CA  TRP A   1      -6.771  15.556   8.412  0.00  0.00    +0.149 C 
ENDROOT
BRANCH   1   2
ATOM      2  C   TRP A   1      -7.682  14.738   7.487  0.00  0.00    +0.239 C 
ATOM      3  O   TRP A   1      -8.388  13.892   7.988  0.00  0.00    -0.274 OA
ATOM      4  N   SER A   2      -7.715  14.994   6.178  0.00  0.00    -0.296 N 
ATOM      5  H   SER A   2      -8.374  14.431   5.603  0.00  0.00    +0.150 HD
BRANCH   4   6
ATOM      6  CA  SER A   2      -6.904  16.000   5.475  0.00  0.00    +0.166 C 
BRANCH   6   7
ATOM      7  CB  SER A   2      -7.766  16.886   4.588  0.00  0.00    +0.229 C 
ATOM      8  OG  SER A   2      -8.898  16.533   4.279  0.00  0.00    -0.286 OA
ENDBRANCH   6   7
BRANCH   6   9
ATOM      9  C   SER A   2      -5.869  15.273   4.581  0.00  0.00    +0.165 C 
BRANCH   9  10
ATOM     10  O   SER A   2      -4.989  16.199   3.937  0.00  0.00    -0.380 OA
ATOM     11  H   SER A   2      -4.500  16.720   4.623  0.00  0.00    +0.211 HD
ENDBRANCH   9  10
ENDBRANCH   6   9
ENDBRANCH   4   6
ENDBRANCH   1   2
BRANCH   1  12
ATOM     12  N   TRP A   1      -7.642  16.252   9.344  0.00  0.00    -0.238 NA
ATOM     13  H   TRP A   1      -8.036  15.753  10.167  0.00  0.00    +0.142 HD
ENDBRANCH   1  12
BRANCH   1  14
ATOM     14  CB  TRP A   1      -5.788  14.634   9.130  0.00  0.00    +0.054 C 
BRANCH  14  15
ATOM     15  CG  TRP A   1      -4.891  13.948   8.093  0.00  0.00    -0.002 A 
ATOM     16  CD2 TRP A   1      -3.658  14.455   7.580  0.00  0.00    +0.013 A 
ATOM     17  CE3 TRP A   1      -2.881  15.593   7.855  0.00  0.00    +0.001 A 
ATOM     18  CZ3 TRP A   1      -1.684  15.765   7.176  0.00  0.00    +0.000 A 
ATOM     19  CH2 TRP A   1      -1.256  14.842   6.198  0.00  0.00    +0.001 A 
ATOM     20  CZ2 TRP A   1      -2.008  13.739   5.884  0.00  0.00    +0.017 A 
ATOM     21  CE2 TRP A   1      -3.198  13.541   6.596  0.00  0.00    +0.056 A 
ATOM     22  NE1 TRP A   1      -4.124  12.529   6.509  0.00  0.00    -0.352 N 
ATOM     23  HE1 TRP A   1      -4.066  11.707   5.874  0.00  0.00    +0.166 HD
ATOM     24  CD1 TRP A   1      -5.145  12.784   7.405  0.00  0.00    +0.068 A 
ENDBRANCH  14  15
ENDBRANCH   1  14
TORSDOF 8
REMARK  Name = ../refined-set-2016/1uz1/1uz1_pocket.pdb
REMARK  143 active torsions:
REMARK  status: ('A' for Active; 'I' for Inactive)
REMARK    1  A    between atoms: _1  and  _3
REMARK    2  A    between atoms: _3  and  _4
REMARK    3  A    between atoms: _7  and  _9
REMARK    4  A    between atoms: _9  and  _10
REMARK    5  A    between atoms: _9  and  _12
REMARK    6  A    between atoms: _12  and  _13
REMARK    7  A    between atoms: _16  and  _18
REMARK    8  A    between atoms: _18  and  _19
REMARK    9  A    between atoms: _22  and  _24
REMARK   10  A    between atoms: _24  and  _25
REMARK   11  A    between atoms: _24  and  _27
REMARK   12  A    between atoms: _27  and  _28
REMARK   13  A    between atoms: _28  and  _29
REMARK   14  A    between atoms: _34  and  _36
REMARK   15  A    between atoms: _36  and  _37
REMARK   16  A    between atoms: _36  and  _39
REMARK   17  A    between atoms: _39  and  _40
REMARK   18  A    between atoms: _40  and  _41
REMARK   19  A    between atoms: _41  and  _42
REMARK   20  A    between atoms: _51  and  _53
REMARK   21  A    between atoms: _53  and  _54
REMARK   22  A    between atoms: _53  and  _56
REMARK   23  A    between atoms: _56  and  _57
REMARK   24  A    between atoms: _60  and  _62
REMARK   25  A    between atoms: _62  and  _63
REMARK   26  A    between atoms: _62  and  _65
REMARK   27  A    between atoms: _65  and  _66
REMARK   28  A    between atoms: _71  and  _73
REMARK   29  A    between atoms: _73  and  _74
REMARK   30  A    between atoms: _73  and  _76
REMARK   31  A    between atoms: _76  and  _77
REMARK   32  A    between atoms: _87  and  _89
REMARK   33  A    between atoms: _89  and  _90
REMARK   34  A    between atoms: _89  and  _92
REMARK   35  A    between atoms: _92  and  _93
REMARK   36  A    between atoms: _98  and  _100
REMARK   37  A    between atoms: _100  and  _101
REMARK   38  A    between atoms: _100  and  _103
REMARK   39  A    between atoms: _103  and  _104
REMARK   40  A    between atoms: _104  and  _105
REMARK   41  A    between atoms: _108  and  _110
REMARK   42  A    between atoms: _110  and  _111
REMARK   43  A    between atoms: _110  and  _113
REMARK   44  A    between atoms: _116  and  _118
REMARK   45  A    between atoms: _118  and  _119
REMARK   46  A    between atoms: _118  and  _121
REMARK   47  A    between atoms: _121  and  _122
REMARK   48  A    between atoms: _127  and  _129
REMARK   49  A    between atoms: _129  and  _130
REMARK   50  A    between atoms: _129  and  _132
REMARK   51  A    between atoms: _135  and  _137
REMARK   52  A    between atoms: _137  and  _138
REMARK   53  A    between atoms: _137  and  _140
REMARK   54  A    between atoms: _140  and  _141
REMARK   55  A    between atoms: _146  and  _148
REMARK   56  A    between atoms: _148  and  _149
REMARK   57  A    between atoms: _148  and  _151
REMARK   58  A    between atoms: _151  and  _152
REMARK   59  A    between atoms: _157  and  _159
REMARK   60  A    between atoms: _159  and  _160
REMARK   61  A    between atoms: _159  and  _162
REMARK   62  A    between atoms: _162  and  _163
REMARK   63  A    between atoms: _168  and  _170
REMARK   64  A    between atoms: _170  and  _171
REMARK   65  A    between atoms: _170  and  _173
REMARK   66  A    between atoms: _173  and  _174
REMARK   67  A    between atoms: _179  and  _180
REMARK   68  A    between atoms: _182  and  _184
REMARK   69  A    between atoms: _184  and  _185
REMARK   70  A    between atoms: _184  and  _187
REMARK   71  A    between atoms: _187  and  _188
REMARK   72  A    between atoms: _193  and  _194
REMARK   73  A    between atoms: _196  and  _198
REMARK   74  A    between atoms: _198  and  _199
REMARK   75  A    between atoms: _198  and  _201
REMARK   76  A    between atoms: _201  and  _202
REMARK   77  A    between atoms: _202  and  _203
REMARK   78  A    between atoms: _205  and  _207
REMARK   79  A    between atoms: _207  and  _208
REMARK   80  A    between atoms: _207  and  _210
REMARK   81  A    between atoms: _210  and  _211
REMARK   82  A    between atoms: _221  and  _223
REMARK   83  A    between atoms: _223  and  _224
REMARK   84  A    between atoms: _223  and  _226
REMARK   85  A    between atoms: _226  and  _227
REMARK   86  A    between atoms: _230  and  _232
REMARK   87  A    between atoms: _232  and  _233
REMARK   88  A    between atoms: _232  and  _235
REMARK   89  A    between atoms: _235  and  _236
REMARK   90  A    between atoms: _236  and  _237
REMARK   91  A    between atoms: _240  and  _242
REMARK   92  A    between atoms: _242  and  _243
REMARK   93  A    between atoms: _242  and  _245
REMARK   94  A    between atoms: _245  and  _246
REMARK   95  A    between atoms: _251  and  _253
REMARK   96  A    between atoms: _253  and  _254
REMARK   97  A    between atoms: _256  and  _258
REMARK   98  A    between atoms: _258  and  _259
REMARK   99  A    between atoms: _262  and  _264
REMARK  100  A    between atoms: _264  and  _265
REMARK  101  A    between atoms: _268  and  _270
REMARK  102  A    between atoms: _270  and  _271
REMARK  103  A    between atoms: _270  and  _273
REMARK  104  A    between atoms: _273  and  _274
REMARK  105  A    between atoms: _284  and  _286
REMARK  106  A    between atoms: _286  and  _287
REMARK  107  A    between atoms: _286  and  _289
REMARK  108  A    between atoms: _289  and  _290
REMARK  109  A    between atoms: _292  and  _294
REMARK  110  A    between atoms: _294  and  _295
REMARK  111  A    between atoms: _294  and  _297
REMARK  112  A    between atoms: _297  and  _298
REMARK  113  A    between atoms: _303  and  _305
REMARK  114  A    between atoms: _305  and  _306
REMARK  115  A    between atoms: _305  and  _308
REMARK  116  A    between atoms: _308  and  _309
REMARK  117  A    between atoms: _315  and  _317
REMARK  118  A    between atoms: _317  and  _318
REMARK  119  A    between atoms: _317  and  _320
REMARK  120  A    between atoms: _320  and  _321
REMARK  121  A    between atoms: _321  and  _322
REMARK  122  A    between atoms: _325  and  _327
REMARK  123  A    between atoms: _327  and  _328
REMARK  124  A    between atoms: _327  and  _330
REMARK  125  A    between atoms: _330  and  _331
REMARK  126  A    between atoms: _341  and  _343
REMARK  127  A    between atoms: _343  and  _344
REMARK  128  A    between atoms: _347  and  _349
REMARK  129  A    between atoms: _349  and  _350
REMARK  130  A    between atoms: _349  and  _352
REMARK  131  A    between atoms: _352  and  _353
REMARK  132  A    between atoms: _353  and  _354
REMARK  133  A    between atoms: _357  and  _359
REMARK  134  A    between atoms: _359  and  _360
REMARK  135  A    between atoms: _359  and  _362
REMARK  136  A    between atoms: _362  and  _363
REMARK  137  A    between atoms: _363  and  _364
REMARK  138  A    between atoms: _364  and  _365
REMARK  139  A    between atoms: _365  and  _366
REMARK  140  A    between atoms: _370  and  _372
REMARK  141  A    between atoms: _372  and  _373
REMARK  142  A    between atoms: _372  and  _375
REMARK  143  A    between atoms: _375  and  _376
REMARK                            x       y       z     vdW  Elec       q    Type
REMARK                         _______ _______ _______ _____ _____    ______ ____
ROOT
ATOM      1  C   GLU A   3       0.020   6.643   3.018  0.00  0.00    +0.241 C 
ATOM      2  O   GLU A   3      -0.179   5.504   3.414  0.00  0.00    -0.273 OA
ATOM      3  N   TRP A   4       1.249   7.150   2.830  0.00  0.00    -0.297 N 
ATOM      4  H   TRP A   4       1.336   8.072   2.357  0.00  0.00    +0.150 HD
ENDROOT
BRANCH   3   5
ATOM      5  CA  TRP A   4       2.486   6.463   3.262  0.00  0.00    +0.153 C 
BRANCH   5   6
ATOM      6  C   TRP A   4       2.538   5.012   2.718  0.00  0.00    +0.241 C 
ATOM      7  N   ALA A   5       2.759   3.996   3.559  0.00  0.00    -0.297 N 
ATOM      8  H   ALA A   5       2.820   4.185   4.580  0.00  0.00    +0.150 HD
ATOM      9  O   TRP A   4       2.344   4.830   1.521  0.00  0.00    -0.273 OA
BRANCH   7  10
ATOM     10  CA  ALA A   5       2.920   2.595   3.065  0.00  0.00    +0.149 C 
ATOM     11  CB  ALA A   5       3.590   1.729   4.097  0.00  0.00    +0.031 C 
BRANCH  10  12
ATOM     12  C   ALA A   5       1.636   1.928   2.546  0.00  0.00    +0.241 C 
ATOM     13  N   GLU A   6       0.495   2.605   2.756  0.00  0.00    -0.298 N 
ATOM     14  H   GLU A   6       0.523   3.442   3.372  0.00  0.00    +0.150 HD
ATOM     15  O   ALA A   5       1.694   0.831   1.951  0.00  0.00    -0.273 OA
BRANCH  13  16
ATOM     16  CA  GLU A   6      -0.790   2.220   2.157  0.00  0.00    +0.137 C 
BRANCH  16  17
ATOM     17  C   GLU A   6      -1.009   2.832   0.773  0.00  0.00    +0.227 C 
ATOM     18  O   GLU A   6      -1.947   2.475   0.077  0.00  0.00    -0.286 OA
ENDBRANCH  16  17
BRANCH  16  19
ATOM     19  CB  GLU A   6      -1.931   2.708   3.067  0.00  0.00    +0.039 C 
BRANCH  19  20
ATOM     20  CG  GLU A   6      -1.947   2.050   4.416  0.00  0.00    +0.116 C 
BRANCH  20  21
ATOM     21  CD  GLU A   6      -2.609   0.676   4.379  0.00  0.00    +0.365 C 
ATOM     22  OE2 GLU A   6      -2.324  -0.121   5.290  0.00  0.00    -0.246 OA
ATOM     23  OE1 GLU A   6      -3.424   0.398   3.461  0.00  0.00    -0.246 OA
ENDBRANCH  20  21
ENDBRANCH  19  20
ENDBRANCH  16  19
ENDBRANCH  13  16
ENDBRANCH  10  12
ENDBRANCH   7  10
ENDBRANCH   5   6
BRANCH   5  24
ATOM     24  CB  TRP A   4       2.651   6.608   4.781  0.00  0.00    +0.057 C 
BRANCH  24  25
ATOM     25  CG  TRP A   4       2.600   8.080   5.210  0.00  0.00    -0.002 A 
ATOM     26  CD1 TRP A   4       1.664   8.682   6.016  0.00  0.00    +0.068 A 
ATOM     27  NE1 TRP A   4       1.955  10.024   6.166  0.00  0.00    -0.352 N 
ATOM     28  HE1 TRP A   4       1.416  10.699   6.745  0.00  0.00    +0.166 HD
ATOM     29  CE2 TRP A   4       3.077  10.322   5.422  0.00  0.00    +0.056 A 
ATOM     30  CZ2 TRP A   4       3.746  11.538   5.246  0.00  0.00    +0.017 A 
ATOM     31  CH2 TRP A   4       4.862  11.541   4.450  0.00  0.00    +0.001 A 
ATOM     32  CZ3 TRP A   4       5.335  10.362   3.840  0.00  0.00    +0.000 A 
ATOM     33  CE3 TRP A   4       4.660   9.159   3.995  0.00  0.00    +0.001 A 
ATOM     34  CD2 TRP A   4       3.494   9.128   4.788  0.00  0.00    +0.013 A 
ENDBRANCH  24  25
ENDBRANCH   5  24
ENDBRANCH   3   5
BRANCH   1  35
ATOM     35  CA  GLU A   3      -1.145   7.565   2.665  0.00  0.00    +0.149 C 
BRANCH  35  38
ATOM     36  C   PHE A   2      -0.398   9.016   0.898  0.00  0.00    +0.241 C 
ATOM     37  O   PHE A   2       0.264   9.682   1.700  0.00  0.00    -0.273 OA
ATOM     38  N   GLU A   3      -1.058   7.928   1.258  0.00  0.00    -0.297 N 
ATOM     39  H   GLU A   3      -1.514   7.333   0.537  0.00  0.00    +0.150 HD
BRANCH  36  40
ATOM     40  CA  PHE A   2      -0.483   9.399  -0.571  0.00  0.00    +0.153 C 
BRANCH  40  43
ATOM     41  C   ASN A   1      -2.705  10.468  -0.573  0.00  0.00    +0.239 C 
ATOM     42  O   ASN A   1      -3.298   9.428  -0.378  0.00  0.00    -0.274 OA
ATOM     43  N   PHE A   2      -1.385  10.555  -0.704  0.00  0.00    -0.297 N 
ATOM     44  H   PHE A   2      -0.969  11.485  -0.911  0.00  0.00    +0.150 HD
BRANCH  41  45
ATOM     45  CA  ASN A   1      -3.470  11.780  -0.714  0.00  0.00    +0.154 C 
BRANCH  45  46
ATOM     46  N   ASN A   1      -4.880  11.648  -0.359  0.00  0.00    -0.238 NA
ATOM     47  H   ASN A   1      -5.210  10.877   0.256  0.00  0.00    +0.142 HD
ENDBRANCH  45  46
BRANCH  45  48
ATOM     48  CB  ASN A   1      -2.826  12.917   0.105  0.00  0.00    +0.111 C 
BRANCH  48  49
ATOM     49  CG  ASN A   1      -2.908  12.669   1.599  0.00  0.00    +0.221 C 
ATOM     50  ND2 ASN A   1      -3.545  13.574   2.330  0.00  0.00    -0.329 N 
ATOM     51 HD21 ASN A   1      -3.632  13.445   3.358  0.00  0.00    +0.145 HD
ATOM     52 HD22 ASN A   1      -3.958  14.413   1.875  0.00  0.00    +0.145 HD
ATOM     53  OD1 ASN A   1      -2.405  11.664   2.089  0.00  0.00    -0.275 OA
ENDBRANCH  48  49
ENDBRANCH  45  48
ENDBRANCH  41  45
ENDBRANCH  40  43
BRANCH  40  54
ATOM     54  CB  PHE A   2       0.899   9.748  -1.150  0.00  0.00    +0.055 C 
BRANCH  54  55
ATOM     55  CG  PHE A   2       1.956   8.690  -0.937  0.00  0.00    -0.020 A 
ATOM     56  CD2 PHE A   2       2.885   8.811   0.106  0.00  0.00    -0.004 A 
ATOM     57  CE2 PHE A   2       3.903   7.813   0.275  0.00  0.00    -0.000 A 
ATOM     58  CZ  PHE A   2       3.974   6.702  -0.615  0.00  0.00    -0.000 A 
ATOM     59  CE1 PHE A   2       3.056   6.597  -1.648  0.00  0.00    -0.000 A 
ATOM     60  CD1 PHE A   2       2.054   7.591  -1.810  0.00  0.00    -0.004 A 
ENDBRANCH  54  55
ENDBRANCH  40  54
ENDBRANCH  36  40
ENDBRANCH  35  38
BRANCH  35  61
ATOM     61  CB  GLU A   3      -2.543   6.994   3.014  0.00  0.00    +0.041 C 
BRANCH  61  62
ATOM     62  CG  GLU A   3      -2.704   6.440   4.437  0.00  0.00    +0.116 C 
BRANCH  62  63
ATOM     63  CD  GLU A   3      -2.306   7.392   5.552  0.00  0.00    +0.365 C 
ATOM     64  OE2 GLU A   3      -1.730   6.911   6.568  0.00  0.00    -0.246 OA
ATOM     65  OE1 GLU A   3      -2.585   8.612   5.446  0.00  0.00    -0.246 OA
ENDBRANCH  62  63
ENDBRANCH  61  62
ENDBRANCH  35  61
ENDBRANCH   1  35
TORSDOF 24
REMARK  Name = ../refined-set-2016/1uz1/1uz1_pocket.pdb
REMARK  143 active torsions:
REMARK  status: ('A' for Active; 'I' for Inactive)
REMARK    1  A    between atoms: _1  and  _3
REMARK    2  A    between atoms: _3  and  _4
REMARK    3  A    between atoms: _7  and  _9
REMARK    4  A    between atoms: _9  and  _10
REMARK    5  A    between atoms: _9  and  _12
REMARK    6  A    between atoms: _12  and  _13
REMARK    7  A    between atoms: _16  and  _18
REMARK    8  A    between atoms: _18  and  _19
REMARK    9  A    between atoms: _22  and  _24
REMARK   10  A    between atoms: _24  and  _25
REMARK   11  A    between atoms: _24  and  _27
REMARK   12  A    between atoms: _27  and  _28
REMARK   13  A    between atoms: _28  and  _29
REMARK   14  A    between atoms: _34  and  _36
REMARK   15  A    between atoms: _36  and  _37
REMARK   16  A    between atoms: _36  and  _39
REMARK   17  A    between atoms: _39  and  _40
REMARK   18  A    between atoms: _40  and  _41
REMARK   19  A    between atoms: _41  and  _42
REMARK   20  A    between atoms: _51  and  _53
REMARK   21  A    between atoms: _53  and  _54
REMARK   22  A    between atoms: _53  and  _56
REMARK   23  A    between atoms: _56  and  _57
REMARK   24  A    between atoms: _60  and  _62
REMARK   25  A    between atoms: _62  and  _63
REMARK   26  A    between atoms: _62  and  _65
REMARK   27  A    between atoms: _65  and  _66
REMARK   28  A    between atoms: _71  and  _73
REMARK   29  A    between atoms: _73  and  _74
REMARK   30  A    between atoms: _73  and  _76
REMARK   31  A    between atoms: _76  and  _77
REMARK   32  A    between atoms: _87  and  _89
REMARK   33  A    between atoms: _89  and  _90
REMARK   34  A    between atoms: _89  and  _92
REMARK   35  A    between atoms: _92  and  _93
REMARK   36  A    between atoms: _98  and  _100
REMARK   37  A    between atoms: _100  and  _101
REMARK   38  A    between atoms: _100  and  _103
REMARK   39  A    between atoms: _103  and  _104
REMARK   40  A    between atoms: _104  and  _105
REMARK   41  A    between atoms: _108  and  _110
REMARK   42  A    between atoms: _110  and  _111
REMARK   43  A    between atoms: _110  and  _113
REMARK   44  A    between atoms: _116  and  _118
REMARK   45  A    between atoms: _118  and  _119
REMARK   46  A    between atoms: _118  and  _121
REMARK   47  A    between atoms: _121  and  _122
REMARK   48  A    between atoms: _127  and  _129
REMARK   49  A    between atoms: _129  and  _130
REMARK   50  A    between atoms: _129  and  _132
REMARK   51  A    between atoms: _135  and  _137
REMARK   52  A    between atoms: _137  and  _138
REMARK   53  A    between atoms: _137  and  _140
REMARK   54  A    between atoms: _140  and  _141
REMARK   55  A    between atoms: _146  and  _148
REMARK   56  A    between atoms: _148  and  _149
REMARK   57  A    between atoms: _148  and  _151
REMARK   58  A    between atoms: _151  and  _152
REMARK   59  A    between atoms: _157  and  _159
REMARK   60  A    between atoms: _159  and  _160
REMARK   61  A    between atoms: _159  and  _162
REMARK   62  A    between atoms: _162  and  _163
REMARK   63  A    between atoms: _168  and  _170
REMARK   64  A    between atoms: _170  and  _171
REMARK   65  A    between atoms: _170  and  _173
REMARK   66  A    between atoms: _173  and  _174
REMARK   67  A    between atoms: _179  and  _180
REMARK   68  A    between atoms: _182  and  _184
REMARK   69  A    between atoms: _184  and  _185
REMARK   70  A    between atoms: _184  and  _187
REMARK   71  A    between atoms: _187  and  _188
REMARK   72  A    between atoms: _193  and  _194
REMARK   73  A    between atoms: _196  and  _198
REMARK   74  A    between atoms: _198  and  _199
REMARK   75  A    between atoms: _198  and  _201
REMARK   76  A    between atoms: _201  and  _202
REMARK   77  A    between atoms: _202  and  _203
REMARK   78  A    between atoms: _205  and  _207
REMARK   79  A    between atoms: _207  and  _208
REMARK   80  A    between atoms: _207  and  _210
REMARK   81  A    between atoms: _210  and  _211
REMARK   82  A    between atoms: _221  and  _223
REMARK   83  A    between atoms: _223  and  _224
REMARK   84  A    between atoms: _223  and  _226
REMARK   85  A    between atoms: _226  and  _227
REMARK   86  A    between atoms: _230  and  _232
REMARK   87  A    between atoms: _232  and  _233
REMARK   88  A    between atoms: _232  and  _235
REMARK   89  A    between atoms: _235  and  _236
REMARK   90  A    between atoms: _236  and  _237
REMARK   91  A    between atoms: _240  and  _242
REMARK   92  A    between atoms: _242  and  _243
REMARK   93  A    between atoms: _242  and  _245
REMARK   94  A    between atoms: _245  and  _246
REMARK   95  A    between atoms: _251  and  _253
REMARK   96  A    between atoms: _253  and  _254
REMARK   97  A    between atoms: _256  and  _258
REMARK   98  A    between atoms: _258  and  _259
REMARK   99  A    between atoms: _262  and  _264
REMARK  100  A    between atoms: _264  and  _265
REMARK  101  A    between atoms: _268  and  _270
REMARK  102  A    between atoms: _270  and  _271
REMARK  103  A    between atoms: _270  and  _273
REMARK  104  A    between atoms: _273  and  _274
REMARK  105  A    between atoms: _284  and  _286
REMARK  106  A    between atoms: _286  and  _287
REMARK  107  A    between atoms: _286  and  _289
REMARK  108  A    between atoms: _289  and  _290
REMARK  109  A    between atoms: _292  and  _294
REMARK  110  A    between atoms: _294  and  _295
REMARK  111  A    between atoms: _294  and  _297
REMARK  112  A    between atoms: _297  and  _298
REMARK  113  A    between atoms: _303  and  _305
REMARK  114  A    between atoms: _305  and  _306
REMARK  115  A    between atoms: _305  and  _308
REMARK  116  A    between atoms: _308  and  _309
REMARK  117  A    between atoms: _315  and  _317
REMARK  118  A    between atoms: _317  and  _318
REMARK  119  A    between atoms: _317  and  _320
REMARK  120  A    between atoms: _320  and  _321
REMARK  121  A    between atoms: _321  and  _322
REMARK  122  A    between atoms: _325  and  _327
REMARK  123  A    between atoms: _327  and  _328
REMARK  124  A    between atoms: _327  and  _330
REMARK  125  A    between atoms: _330  and  _331
REMARK  126  A    between atoms: _341  and  _343
REMARK  127  A    between atoms: _343  and  _344
REMARK  128  A    between atoms: _347  and  _349
REMARK  129  A    between atoms: _349  and  _350
REMARK  130  A    between atoms: _349  and  _352
REMARK  131  A    between atoms: _352  and  _353
REMARK  132  A    between atoms: _353  and  _354
REMARK  133  A    between atoms: _357  and  _359
REMARK  134  A    between atoms: _359  and  _360
REMARK  135  A    between atoms: _359  and  _362
REMARK  136  A    between atoms: _362  and  _363
REMARK  137  A    between atoms: _363  and  _364
REMARK  138  A    between atoms: _364  and  _365
REMARK  139  A    between atoms: _365  and  _366
REMARK  140  A    between atoms: _370  and  _372
REMARK  141  A    between atoms: _372  and  _373
REMARK  142  A    between atoms: _372  and  _375
REMARK  143  A    between atoms: _375  and  _376
REMARK                            x       y       z     vdW  Elec       q    Type
REMARK                         _______ _______ _______ _____ _____    ______ ____
ROOT
ATOM      1  CG  LYS A   1      -5.788   3.289   3.361  0.00  0.00    -0.000 C 
ENDROOT
BRANCH   1   2
ATOM      2  CB  LYS A   1      -5.964   4.806   3.095  0.00  0.00    +0.025 C 
BRANCH   2   3
ATOM      3  CA  LYS A   1      -6.643   5.148   1.759  0.00  0.00    +0.133 C 
BRANCH   3   4
ATOM      4  N   LYS A   1      -5.888   4.622   0.620  0.00  0.00    -0.239 NA
ATOM      5  H   LYS A   1      -4.939   4.985   0.399  0.00  0.00    +0.142 HD
ENDBRANCH   3   4
BRANCH   3   6
ATOM      6  C   LYS A   1      -6.932   6.630   1.621  0.00  0.00    +0.224 C 
ATOM      7  O   LYS A   1      -6.014   7.470   1.547  0.00  0.00    -0.287 OA
ENDBRANCH   3   6
ENDBRANCH   2   3
ENDBRANCH   1   2
BRANCH   1   8
ATOM      8  CD  LYS A   1      -7.138   2.650   3.723  0.00  0.00    -0.024 C 
BRANCH   8   9
ATOM      9  CE  LYS A   1      -7.301   1.251   3.137  0.00  0.00    -0.086 C 
BRANCH   9  10
ATOM     10  NZ  LYS A   1      -6.191   0.378   3.519  0.00  0.00    +0.380 N 
ATOM     11  HZ1 LYS A   1      -6.154   0.300   4.555  0.00  0.00    -0.089 HD
ATOM     12  HZ2 LYS A   1      -5.298   0.781   3.169  0.00  0.00    -0.089 HD
ATOM     13  HZ3 LYS A   1      -6.334  -0.565   3.104  0.00  0.00    -0.089 HD
ENDBRANCH   9  10
ENDBRANCH   8   9
ENDBRANCH   1   8
TORSDOF 7
REMARK  Name = ../refined-set-2016/1uz1/1uz1_pocket.pdb
REMARK  143 active torsions:
REMARK  status: ('A' for Active; 'I' for Inactive)
REMARK    1  A    between atoms: _1  and  _3
REMARK    2  A    between atoms: _3  and  _4
REMARK    3  A    between atoms: _7  and  _9
REMARK    4  A    between atoms: _9  and  _10
REMARK    5  A    between atoms: _9  and  _12
REMARK    6  A    between atoms: _12  and  _13
REMARK    7  A    between atoms: _16  and  _18
REMARK    8  A    between atoms: _18  and  _19
REMARK    9  A    between atoms: _22  and  _24
REMARK   10  A    between atoms: _24  and  _25
REMARK   11  A    between atoms: _24  and  _27
REMARK   12  A    between atoms: _27  and  _28
REMARK   13  A    between atoms: _28  and  _29
REMARK   14  A    between atoms: _34  and  _36
REMARK   15  A    between atoms: _36  and  _37
REMARK   16  A    between atoms: _36  and  _39
REMARK   17  A    between atoms: _39  and  _40
REMARK   18  A    between atoms: _40  and  _41
REMARK   19  A    between atoms: _41  and  _42
REMARK   20  A    between atoms: _51  and  _53
REMARK   21  A    between atoms: _53  and  _54
REMARK   22  A    between atoms: _53  and  _56
REMARK   23  A    between atoms: _56  and  _57
REMARK   24  A    between atoms: _60  and  _62
REMARK   25  A    between atoms: _62  and  _63
REMARK   26  A    between atoms: _62  and  _65
REMARK   27  A    between atoms: _65  and  _66
REMARK   28  A    between atoms: _71  and  _73
REMARK   29  A    between atoms: _73  and  _74
REMARK   30  A    between atoms: _73  and  _76
REMARK   31  A    between atoms: _76  and  _77
REMARK   32  A    between atoms: _87  and  _89
REMARK   33  A    between atoms: _89  and  _90
REMARK   34  A    between atoms: _89  and  _92
REMARK   35  A    between atoms: _92  and  _93
REMARK   36  A    between atoms: _98  and  _100
REMARK   37  A    between atoms: _100  and  _101
REMARK   38  A    between atoms: _100  and  _103
REMARK   39  A    between atoms: _103  and  _104
REMARK   40  A    between atoms: _104  and  _105
REMARK   41  A    between atoms: _108  and  _110
REMARK   42  A    between atoms: _110  and  _111
REMARK   43  A    between atoms: _110  and  _113
REMARK   44  A    between atoms: _116  and  _118
REMARK   45  A    between atoms: _118  and  _119
REMARK   46  A    between atoms: _118  and  _121
REMARK   47  A    between atoms: _121  and  _122
REMARK   48  A    between atoms: _127  and  _129
REMARK   49  A    between atoms: _129  and  _130
REMARK   50  A    between atoms: _129  and  _132
REMARK   51  A    between atoms: _135  and  _137
REMARK   52  A    between atoms: _137  and  _138
REMARK   53  A    between atoms: _137  and  _140
REMARK   54  A    between atoms: _140  and  _141
REMARK   55  A    between atoms: _146  and  _148
REMARK   56  A    between atoms: _148  and  _149
REMARK   57  A    between atoms: _148  and  _151
REMARK   58  A    between atoms: _151  and  _152
REMARK   59  A    between atoms: _157  and  _159
REMARK   60  A    between atoms: _159  and  _160
REMARK   61  A    between atoms: _159  and  _162
REMARK   62  A    between atoms: _162  and  _163
REMARK   63  A    between atoms: _168  and  _170
REMARK   64  A    between atoms: _170  and  _171
REMARK   65  A    between atoms: _170  and  _173
REMARK   66  A    between atoms: _173  and  _174
REMARK   67  A    between atoms: _179  and  _180
REMARK   68  A    between atoms: _182  and  _184
REMARK   69  A    between atoms: _184  and  _185
REMARK   70  A    between atoms: _184  and  _187
REMARK   71  A    between atoms: _187  and  _188
REMARK   72  A    between atoms: _193  and  _194
REMARK   73  A    between atoms: _196  and  _198
REMARK   74  A    between atoms: _198  and  _199
REMARK   75  A    between atoms: _198  and  _201
REMARK   76  A    between atoms: _201  and  _202
REMARK   77  A    between atoms: _202  and  _203
REMARK   78  A    between atoms: _205  and  _207
REMARK   79  A    between atoms: _207  and  _208
REMARK   80  A    between atoms: _207  and  _210
REMARK   81  A    between atoms: _210  and  _211
REMARK   82  A    between atoms: _221  and  _223
REMARK   83  A    between atoms: _223  and  _224
REMARK   84  A    between atoms: _223  and  _226
REMARK   85  A    between atoms: _226  and  _227
REMARK   86  A    between atoms: _230  and  _232
REMARK   87  A    between atoms: _232  and  _233
REMARK   88  A    between atoms: _232  and  _235
REMARK   89  A    between atoms: _235  and  _236
REMARK   90  A    between atoms: _236  and  _237
REMARK   91  A    between atoms: _240  and  _242
REMARK   92  A    between atoms: _242  and  _243
REMARK   93  A    between atoms: _242  and  _245
REMARK   94  A    between atoms: _245  and  _246
REMARK   95  A    between atoms: _251  and  _253
REMARK   96  A    between atoms: _253  and  _254
REMARK   97  A    between atoms: _256  and  _258
REMARK   98  A    between atoms: _258  and  _259
REMARK   99  A    between atoms: _262  and  _264
REMARK  100  A    between atoms: _264  and  _265
REMARK  101  A    between atoms: _268  and  _270
REMARK  102  A    between atoms: _270  and  _271
REMARK  103  A    between atoms: _270  and  _273
REMARK  104  A    between atoms: _273  and  _274
REMARK  105  A    between atoms: _284  and  _286
REMARK  106  A    between atoms: _286  and  _287
REMARK  107  A    between atoms: _286  and  _289
REMARK  108  A    between atoms: _289  and  _290
REMARK  109  A    between atoms: _292  and  _294
REMARK  110  A    between atoms: _294  and  _295
REMARK  111  A    between atoms: _294  and  _297
REMARK  112  A    between atoms: _297  and  _298
REMARK  113  A    between atoms: _303  and  _305
REMARK  114  A    between atoms: _305  and  _306
REMARK  115  A    between atoms: _305  and  _308
REMARK  116  A    between atoms: _308  and  _309
REMARK  117  A    between atoms: _315  and  _317
REMARK  118  A    between atoms: _317  and  _318
REMARK  119  A    between atoms: _317  and  _320
REMARK  120  A    between atoms: _320  and  _321
REMARK  121  A    between atoms: _321  and  _322
REMARK  122  A    between atoms: _325  and  _327
REMARK  123  A    between atoms: _327  and  _328
REMARK  124  A    between atoms: _327  and  _330
REMARK  125  A    between atoms: _330  and  _331
REMARK  126  A    between atoms: _341  and  _343
REMARK  127  A    between atoms: _343  and  _344
REMARK  128  A    between atoms: _347  and  _349
REMARK  129  A    between atoms: _349  and  _350
REMARK  130  A    between atoms: _349  and  _352
REMARK  131  A    between atoms: _352  and  _353
REMARK  132  A    between atoms: _353  and  _354
REMARK  133  A    between atoms: _357  and  _359
REMARK  134  A    between atoms: _359  and  _360
REMARK  135  A    between atoms: _359  and  _362
REMARK  136  A    between atoms: _362  and  _363
REMARK  137  A    between atoms: _363  and  _364
REMARK  138  A    between atoms: _364  and  _365
REMARK  139  A    between atoms: _365  and  _366
REMARK  140  A    between atoms: _370  and  _372
REMARK  141  A    between atoms: _372  and  _373
REMARK  142  A    between atoms: _372  and  _375
REMARK  143  A    between atoms: _375  and  _376
REMARK                            x       y       z     vdW  Elec       q    Type
REMARK                         _______ _______ _______ _____ _____    ______ ____
ROOT
ATOM      1  CB  PHE A   1      -7.423  11.048   5.140  0.00  0.00    +0.051 C 
ENDROOT
BRANCH   1   2
ATOM      2  CG  PHE A   1      -7.066   9.931   6.050  0.00  0.00    -0.020 A 
ATOM      3  CD2 PHE A   1      -7.481   9.944   7.375  0.00  0.00    -0.004 A 
ATOM      4  CE2 PHE A   1      -7.140   8.926   8.229  0.00  0.00    -0.000 A 
ATOM      5  CZ  PHE A   1      -6.373   7.886   7.787  0.00  0.00    -0.000 A 
ATOM      6  CE1 PHE A   1      -5.934   7.854   6.461  0.00  0.00    -0.000 A 
ATOM      7  CD1 PHE A   1      -6.281   8.866   5.598  0.00  0.00    -0.004 A 
ENDBRANCH   1   2
BRANCH   1   8
ATOM      8  CA  PHE A   1      -8.713  10.834   4.336  0.00  0.00    +0.137 C 
BRANCH   8   9
ATOM      9  N   PHE A   1      -8.445  10.033   3.127  0.00  0.00    -0.239 NA
ATOM     10  H   PHE A   1      -7.625  10.300   2.546  0.00  0.00    +0.142 HD
ENDBRANCH   8   9
BRANCH   8  11
ATOM     11  C   PHE A   1      -9.264  12.252   4.045  0.00  0.00    +0.224 C 
ATOM     12  O   PHE A   1      -9.526  13.020   4.970  0.00  0.00    -0.287 OA
ENDBRANCH   8  11
ENDBRANCH   1   8
TORSDOF 4
REMARK  Name = ../refined-set-2016/1uz1/1uz1_pocket.pdb
REMARK  143 active torsions:
REMARK  status: ('A' for Active; 'I' for Inactive)
REMARK    1  A    between atoms: _1  and  _3
REMARK    2  A    between atoms: _3  and  _4
REMARK    3  A    between atoms: _7  and  _9
REMARK    4  A    between atoms: _9  and  _10
REMARK    5  A    between atoms: _9  and  _12
REMARK    6  A    between atoms: _12  and  _13
REMARK    7  A    between atoms: _16  and  _18
REMARK    8  A    between atoms: _18  and  _19
REMARK    9  A    between atoms: _22  and  _24
REMARK   10  A    between atoms: _24  and  _25
REMARK   11  A    between atoms: _24  and  _27
REMARK   12  A    between atoms: _27  and  _28
REMARK   13  A    between atoms: _28  and  _29
REMARK   14  A    between atoms: _34  and  _36
REMARK   15  A    between atoms: _36  and  _37
REMARK   16  A    between atoms: _36  and  _39
REMARK   17  A    between atoms: _39  and  _40
REMARK   18  A    between atoms: _40  and  _41
REMARK   19  A    between atoms: _41  and  _42
REMARK   20  A    between atoms: _51  and  _53
REMARK   21  A    between atoms: _53  and  _54
REMARK   22  A    between atoms: _53  and  _56
REMARK   23  A    between atoms: _56  and  _57
REMARK   24  A    between atoms: _60  and  _62
REMARK   25  A    between atoms: _62  and  _63
REMARK   26  A    between atoms: _62  and  _65
REMARK   27  A    between atoms: _65  and  _66
REMARK   28  A    between atoms: _71  and  _73
REMARK   29  A    between atoms: _73  and  _74
REMARK   30  A    between atoms: _73  and  _76
REMARK   31  A    between atoms: _76  and  _77
REMARK   32  A    between atoms: _87  and  _89
REMARK   33  A    between atoms: _89  and  _90
REMARK   34  A    between atoms: _89  and  _92
REMARK   35  A    between atoms: _92  and  _93
REMARK   36  A    between atoms: _98  and  _100
REMARK   37  A    between atoms: _100  and  _101
REMARK   38  A    between atoms: _100  and  _103
REMARK   39  A    between atoms: _103  and  _104
REMARK   40  A    between atoms: _104  and  _105
REMARK   41  A    between atoms: _108  and  _110
REMARK   42  A    between atoms: _110  and  _111
REMARK   43  A    between atoms: _110  and  _113
REMARK   44  A    between atoms: _116  and  _118
REMARK   45  A    between atoms: _118  and  _119
REMARK   46  A    between atoms: _118  and  _121
REMARK   47  A    between atoms: _121  and  _122
REMARK   48  A    between atoms: _127  and  _129
REMARK   49  A    between atoms: _129  and  _130
REMARK   50  A    between atoms: _129  and  _132
REMARK   51  A    between atoms: _135  and  _137
REMARK   52  A    between atoms: _137  and  _138
REMARK   53  A    between atoms: _137  and  _140
REMARK   54  A    between atoms: _140  and  _141
REMARK   55  A    between atoms: _146  and  _148
REMARK   56  A    between atoms: _148  and  _149
REMARK   57  A    between atoms: _148  and  _151
REMARK   58  A    between atoms: _151  and  _152
REMARK   59  A    between atoms: _157  and  _159
REMARK   60  A    between atoms: _159  and  _160
REMARK   61  A    between atoms: _159  and  _162
REMARK   62  A    between atoms: _162  and  _163
REMARK   63  A    between atoms: _168  and  _170
REMARK   64  A    between atoms: _170  and  _171
REMARK   65  A    between atoms: _170  and  _173
REMARK   66  A    between atoms: _173  and  _174
REMARK   67  A    between atoms: _179  and  _180
REMARK   68  A    between atoms: _182  and  _184
REMARK   69  A    between atoms: _184  and  _185
REMARK   70  A    between atoms: _184  and  _187
REMARK   71  A    between atoms: _187  and  _188
REMARK   72  A    between atoms: _193  and  _194
REMARK   73  A    between atoms: _196  and  _198
REMARK   74  A    between atoms: _198  and  _199
REMARK   75  A    between atoms: _198  and  _201
REMARK   76  A    between atoms: _201  and  _202
REMARK   77  A    between atoms: _202  and  _203
REMARK   78  A    between atoms: _205  and  _207
REMARK   79  A    between atoms: _207  and  _208
REMARK   80  A    between atoms: _207  and  _210
REMARK   81  A    between atoms: _210  and  _211
REMARK   82  A    between atoms: _221  and  _223
REMARK   83  A    between atoms: _223  and  _224
REMARK   84  A    between atoms: _223  and  _226
REMARK   85  A    between atoms: _226  and  _227
REMARK   86  A    between atoms: _230  and  _232
REMARK   87  A    between atoms: _232  and  _233
REMARK   88  A    between atoms: _232  and  _235
REMARK   89  A    between atoms: _235  and  _236
REMARK   90  A    between atoms: _236  and  _237
REMARK   91  A    between atoms: _240  and  _242
REMARK   92  A    between atoms: _242  and  _243
REMARK   93  A    between atoms: _242  and  _245
REMARK   94  A    between atoms: _245  and  _246
REMARK   95  A    between atoms: _251  and  _253
REMARK   96  A    between atoms: _253  and  _254
REMARK   97  A    between atoms: _256  and  _258
REMARK   98  A    between atoms: _258  and  _259
REMARK   99  A    between atoms: _262  and  _264
REMARK  100  A    between atoms: _264  and  _265
REMARK  101  A    between atoms: _268  and  _270
REMARK  102  A    between atoms: _270  and  _271
REMARK  103  A    between atoms: _270  and  _273
REMARK  104  A    between atoms: _273  and  _274
REMARK  105  A    between atoms: _284  and  _286
REMARK  106  A    between atoms: _286  and  _287
REMARK  107  A    between atoms: _286  and  _289
REMARK  108  A    between atoms: _289  and  _290
REMARK  109  A    between atoms: _292  and  _294
REMARK  110  A    between atoms: _294  and  _295
REMARK  111  A    between atoms: _294  and  _297
REMARK  112  A    between atoms: _297  and  _298
REMARK  113  A    between atoms: _303  and  _305
REMARK  114  A    between atoms: _305  and  _306
REMARK  115  A    between atoms: _305  and  _308
REMARK  116  A    between atoms: _308  and  _309
REMARK  117  A    between atoms: _315  and  _317
REMARK  118  A    between atoms: _317  and  _318
REMARK  119  A    between atoms: _317  and  _320
REMARK  120  A    between atoms: _320  and  _321
REMARK  121  A    between atoms: _321  and  _322
REMARK  122  A    between atoms: _325  and  _327
REMARK  123  A    between atoms: _327  and  _328
REMARK  124  A    between atoms: _327  and  _330
REMARK  125  A    between atoms: _330  and  _331
REMARK  126  A    between atoms: _341  and  _343
REMARK  127  A    between atoms: _343  and  _344
REMARK  128  A    between atoms: _347  and  _349
REMARK  129  A    between atoms: _349  and  _350
REMARK  130  A    between atoms: _349  and  _352
REMARK  131  A    between atoms: _352  and  _353
REMARK  132  A    between atoms: _353  and  _354
REMARK  133  A    between atoms: _357  and  _359
REMARK  134  A    between atoms: _359  and  _360
REMARK  135  A    between atoms: _359  and  _362
REMARK  136  A    between atoms: _362  and  _363
REMARK  137  A    between atoms: _363  and  _364
REMARK  138  A    between atoms: _364  and  _365
REMARK  139  A    between atoms: _365  and  _366
REMARK  140  A    between atoms: _370  and  _372
REMARK  141  A    between atoms: _372  and  _373
REMARK  142  A    between atoms: _372  and  _375
REMARK  143  A    between atoms: _375  and  _376
REMARK                            x       y       z     vdW  Elec       q    Type
REMARK                         _______ _______ _______ _____ _____    ______ ____
ROOT
ATOM      1  O   HOH     1       1.827  19.096   8.298  0.00  0.00    +0.000 OA
ENDROOT
TORSDOF 0
REMARK  Name = ../refined-set-2016/1uz1/1uz1_pocket.pdb
REMARK  143 active torsions:
REMARK  status: ('A' for Active; 'I' for Inactive)
REMARK    1  A    between atoms: _1  and  _3
REMARK    2  A    between atoms: _3  and  _4
REMARK    3  A    between atoms: _7  and  _9
REMARK    4  A    between atoms: _9  and  _10
REMARK    5  A    between atoms: _9  and  _12
REMARK    6  A    between atoms: _12  and  _13
REMARK    7  A    between atoms: _16  and  _18
REMARK    8  A    between atoms: _18  and  _19
REMARK    9  A    between atoms: _22  and  _24
REMARK   10  A    between atoms: _24  and  _25
REMARK   11  A    between atoms: _24  and  _27
REMARK   12  A    between atoms: _27  and  _28
REMARK   13  A    between atoms: _28  and  _29
REMARK   14  A    between atoms: _34  and  _36
REMARK   15  A    between atoms: _36  and  _37
REMARK   16  A    between atoms: _36  and  _39
REMARK   17  A    between atoms: _39  and  _40
REMARK   18  A    between atoms: _40  and  _41
REMARK   19  A    between atoms: _41  and  _42
REMARK   20  A    between atoms: _51  and  _53
REMARK   21  A    between atoms: _53  and  _54
REMARK   22  A    between atoms: _53  and  _56
REMARK   23  A    between atoms: _56  and  _57
REMARK   24  A    between atoms: _60  and  _62
REMARK   25  A    between atoms: _62  and  _63
REMARK   26  A    between atoms: _62  and  _65
REMARK   27  A    between atoms: _65  and  _66
REMARK   28  A    between atoms: _71  and  _73
REMARK   29  A    between atoms: _73  and  _74
REMARK   30  A    between atoms: _73  and  _76
REMARK   31  A    between atoms: _76  and  _77
REMARK   32  A    between atoms: _87  and  _89
REMARK   33  A    between atoms: _89  and  _90
REMARK   34  A    between atoms: _89  and  _92
REMARK   35  A    between atoms: _92  and  _93
REMARK   36  A    between atoms: _98  and  _100
REMARK   37  A    between atoms: _100  and  _101
REMARK   38  A    between atoms: _100  and  _103
REMARK   39  A    between atoms: _103  and  _104
REMARK   40  A    between atoms: _104  and  _105
REMARK   41  A    between atoms: _108  and  _110
REMARK   42  A    between atoms: _110  and  _111
REMARK   43  A    between atoms: _110  and  _113
REMARK   44  A    between atoms: _116  and  _118
REMARK   45  A    between atoms: _118  and  _119
REMARK   46  A    between atoms: _118  and  _121
REMARK   47  A    between atoms: _121  and  _122
REMARK   48  A    between atoms: _127  and  _129
REMARK   49  A    between atoms: _129  and  _130
REMARK   50  A    between atoms: _129  and  _132
REMARK   51  A    between atoms: _135  and  _137
REMARK   52  A    between atoms: _137  and  _138
REMARK   53  A    between atoms: _137  and  _140
REMARK   54  A    between atoms: _140  and  _141
REMARK   55  A    between atoms: _146  and  _148
REMARK   56  A    between atoms: _148  and  _149
REMARK   57  A    between atoms: _148  and  _151
REMARK   58  A    between atoms: _151  and  _152
REMARK   59  A    between atoms: _157  and  _159
REMARK   60  A    between atoms: _159  and  _160
REMARK   61  A    between atoms: _159  and  _162
REMARK   62  A    between atoms: _162  and  _163
REMARK   63  A    between atoms: _168  and  _170
REMARK   64  A    between atoms: _170  and  _171
REMARK   65  A    between atoms: _170  and  _173
REMARK   66  A    between atoms: _173  and  _174
REMARK   67  A    between atoms: _179  and  _180
REMARK   68  A    between atoms: _182  and  _184
REMARK   69  A    between atoms: _184  and  _185
REMARK   70  A    between atoms: _184  and  _187
REMARK   71  A    between atoms: _187  and  _188
REMARK   72  A    between atoms: _193  and  _194
REMARK   73  A    between atoms: _196  and  _198
REMARK   74  A    between atoms: _198  and  _199
REMARK   75  A    between atoms: _198  and  _201
REMARK   76  A    between atoms: _201  and  _202
REMARK   77  A    between atoms: _202  and  _203
REMARK   78  A    between atoms: _205  and  _207
REMARK   79  A    between atoms: _207  and  _208
REMARK   80  A    between atoms: _207  and  _210
REMARK   81  A    between atoms: _210  and  _211
REMARK   82  A    between atoms: _221  and  _223
REMARK   83  A    between atoms: _223  and  _224
REMARK   84  A    between atoms: _223  and  _226
REMARK   85  A    between atoms: _226  and  _227
REMARK   86  A    between atoms: _230  and  _232
REMARK   87  A    between atoms: _232  and  _233
REMARK   88  A    between atoms: _232  and  _235
REMARK   89  A    between atoms: _235  and  _236
REMARK   90  A    between atoms: _236  and  _237
REMARK   91  A    between atoms: _240  and  _242
REMARK   92  A    between atoms: _242  and  _243
REMARK   93  A    between atoms: _242  and  _245
REMARK   94  A    between atoms: _245  and  _246
REMARK   95  A    between atoms: _251  and  _253
REMARK   96  A    between atoms: _253  and  _254
REMARK   97  A    between atoms: _256  and  _258
REMARK   98  A    between atoms: _258  and  _259
REMARK   99  A    between atoms: _262  and  _264
REMARK  100  A    between atoms: _264  and  _265
REMARK  101  A    between atoms: _268  and  _270
REMARK  102  A    between atoms: _270  and  _271
REMARK  103  A    between atoms: _270  and  _273
REMARK  104  A    between atoms: _273  and  _274
REMARK  105  A    between atoms: _284  and  _286
REMARK  106  A    between atoms: _286  and  _287
REMARK  107  A    between atoms: _286  and  _289
REMARK  108  A    between atoms: _289  and  _290
REMARK  109  A    between atoms: _292  and  _294
REMARK  110  A    between atoms: _294  and  _295
REMARK  111  A    between atoms: _294  and  _297
REMARK  112  A    between atoms: _297  and  _298
REMARK  113  A    between atoms: _303  and  _305
REMARK  114  A    between atoms: _305  and  _306
REMARK  115  A    between atoms: _305  and  _308
REMARK  116  A    between atoms: _308  and  _309
REMARK  117  A    between atoms: _315  and  _317
REMARK  118  A    between atoms: _317  and  _318
REMARK  119  A    between atoms: _317  and  _320
REMARK  120  A    between atoms: _320  and  _321
REMARK  121  A    between atoms: _321  and  _322
REMARK  122  A    between atoms: _325  and  _327
REMARK  123  A    between atoms: _327  and  _328
REMARK  124  A    between atoms: _327  and  _330
REMARK  125  A    between atoms: _330  and  _331
REMARK  126  A    between atoms: _341  and  _343
REMARK  127  A    between atoms: _343  and  _344
REMARK  128  A    between atoms: _347  and  _349
REMARK  129  A    between atoms: _349  and  _350
REMARK  130  A    between atoms: _349  and  _352
REMARK  131  A    between atoms: _352  and  _353
REMARK  132  A    between atoms: _353  and  _354
REMARK  133  A    between atoms: _357  and  _359
REMARK  134  A    between atoms: _359  and  _360
REMARK  135  A    between atoms: _359  and  _362
REMARK  136  A    between atoms: _362  and  _363
REMARK  137  A    between atoms: _363  and  _364
REMARK  138  A    between atoms: _364  and  _365
REMARK  139  A    between atoms: _365  and  _366
REMARK  140  A    between atoms: _370  and  _372
REMARK  141  A    between atoms: _372  and  _373
REMARK  142  A    between atoms: _372  and  _375
REMARK  143  A    between atoms: _375  and  _376
REMARK                            x       y       z     vdW  Elec       q    Type
REMARK                         _______ _______ _______ _____ _____    ______ ____
ROOT
ATOM      1  O   HOH     1       1.140   6.585  10.025  0.00  0.00    +0.000 OA
ENDROOT
TORSDOF 0
REMARK  Name = ../refined-set-2016/1uz1/1uz1_pocket.pdb
REMARK  143 active torsions:
REMARK  status: ('A' for Active; 'I' for Inactive)
REMARK    1  A    between atoms: _1  and  _3
REMARK    2  A    between atoms: _3  and  _4
REMARK    3  A    between atoms: _7  and  _9
REMARK    4  A    between atoms: _9  and  _10
REMARK    5  A    between atoms: _9  and  _12
REMARK    6  A    between atoms: _12  and  _13
REMARK    7  A    between atoms: _16  and  _18
REMARK    8  A    between atoms: _18  and  _19
REMARK    9  A    between atoms: _22  and  _24
REMARK   10  A    between atoms: _24  and  _25
REMARK   11  A    between atoms: _24  and  _27
REMARK   12  A    between atoms: _27  and  _28
REMARK   13  A    between atoms: _28  and  _29
REMARK   14  A    between atoms: _34  and  _36
REMARK   15  A    between atoms: _36  and  _37
REMARK   16  A    between atoms: _36  and  _39
REMARK   17  A    between atoms: _39  and  _40
REMARK   18  A    between atoms: _40  and  _41
REMARK   19  A    between atoms: _41  and  _42
REMARK   20  A    between atoms: _51  and  _53
REMARK   21  A    between atoms: _53  and  _54
REMARK   22  A    between atoms: _53  and  _56
REMARK   23  A    between atoms: _56  and  _57
REMARK   24  A    between atoms: _60  and  _62
REMARK   25  A    between atoms: _62  and  _63
REMARK   26  A    between atoms: _62  and  _65
REMARK   27  A    between atoms: _65  and  _66
REMARK   28  A    between atoms: _71  and  _73
REMARK   29  A    between atoms: _73  and  _74
REMARK   30  A    between atoms: _73  and  _76
REMARK   31  A    between atoms: _76  and  _77
REMARK   32  A    between atoms: _87  and  _89
REMARK   33  A    between atoms: _89  and  _90
REMARK   34  A    between atoms: _89  and  _92
REMARK   35  A    between atoms: _92  and  _93
REMARK   36  A    between atoms: _98  and  _100
REMARK   37  A    between atoms: _100  and  _101
REMARK   38  A    between atoms: _100  and  _103
REMARK   39  A    between atoms: _103  and  _104
REMARK   40  A    between atoms: _104  and  _105
REMARK   41  A    between atoms: _108  and  _110
REMARK   42  A    between atoms: _110  and  _111
REMARK   43  A    between atoms: _110  and  _113
REMARK   44  A    between atoms: _116  and  _118
REMARK   45  A    between atoms: _118  and  _119
REMARK   46  A    between atoms: _118  and  _121
REMARK   47  A    between atoms: _121  and  _122
REMARK   48  A    between atoms: _127  and  _129
REMARK   49  A    between atoms: _129  and  _130
REMARK   50  A    between atoms: _129  and  _132
REMARK   51  A    between atoms: _135  and  _137
REMARK   52  A    between atoms: _137  and  _138
REMARK   53  A    between atoms: _137  and  _140
REMARK   54  A    between atoms: _140  and  _141
REMARK   55  A    between atoms: _146  and  _148
REMARK   56  A    between atoms: _148  and  _149
REMARK   57  A    between atoms: _148  and  _151
REMARK   58  A    between atoms: _151  and  _152
REMARK   59  A    between atoms: _157  and  _159
REMARK   60  A    between atoms: _159  and  _160
REMARK   61  A    between atoms: _159  and  _162
REMARK   62  A    between atoms: _162  and  _163
REMARK   63  A    between atoms: _168  and  _170
REMARK   64  A    between atoms: _170  and  _171
REMARK   65  A    between atoms: _170  and  _173
REMARK   66  A    between atoms: _173  and  _174
REMARK   67  A    between atoms: _179  and  _180
REMARK   68  A    between atoms: _182  and  _184
REMARK   69  A    between atoms: _184  and  _185
REMARK   70  A    between atoms: _184  and  _187
REMARK   71  A    between atoms: _187  and  _188
REMARK   72  A    between atoms: _193  and  _194
REMARK   73  A    between atoms: _196  and  _198
REMARK   74  A    between atoms: _198  and  _199
REMARK   75  A    between atoms: _198  and  _201
REMARK   76  A    between atoms: _201  and  _202
REMARK   77  A    between atoms: _202  and  _203
REMARK   78  A    between atoms: _205  and  _207
REMARK   79  A    between atoms: _207  and  _208
REMARK   80  A    between atoms: _207  and  _210
REMARK   81  A    between atoms: _210  and  _211
REMARK   82  A    between atoms: _221  and  _223
REMARK   83  A    between atoms: _223  and  _224
REMARK   84  A    between atoms: _223  and  _226
REMARK   85  A    between atoms: _226  and  _227
REMARK   86  A    between atoms: _230  and  _232
REMARK   87  A    between atoms: _232  and  _233
REMARK   88  A    between atoms: _232  and  _235
REMARK   89  A    between atoms: _235  and  _236
REMARK   90  A    between atoms: _236  and  _237
REMARK   91  A    between atoms: _240  and  _242
REMARK   92  A    between atoms: _242  and  _243
REMARK   93  A    between atoms: _242  and  _245
REMARK   94  A    between atoms: _245  and  _246
REMARK   95  A    between atoms: _251  and  _253
REMARK   96  A    between atoms: _253  and  _254
REMARK   97  A    between atoms: _256  and  _258
REMARK   98  A    between atoms: _258  and  _259
REMARK   99  A    between atoms: _262  and  _264
REMARK  100  A    between atoms: _264  and  _265
REMARK  101  A    between atoms: _268  and  _270
REMARK  102  A    between atoms: _270  and  _271
REMARK  103  A    between atoms: _270  and  _273
REMARK  104  A    between atoms: _273  and  _274
REMARK  105  A    between atoms: _284  and  _286
REMARK  106  A    between atoms: _286  and  _287
REMARK  107  A    between atoms: _286  and  _289
REMARK  108  A    between atoms: _289  and  _290
REMARK  109  A    between atoms: _292  and  _294
REMARK  110  A    between atoms: _294  and  _295
REMARK  111  A    between atoms: _294  and  _297
REMARK  112  A    between atoms: _297  and  _298
REMARK  113  A    between atoms: _303  and  _305
REMARK  114  A    between atoms: _305  and  _306
REMARK  115  A    between atoms: _305  and  _308
REMARK  116  A    between atoms: _308  and  _309
REMARK  117  A    between atoms: _315  and  _317
REMARK  118  A    between atoms: _317  and  _318
REMARK  119  A    between atoms: _317  and  _320
REMARK  120  A    between atoms: _320  and  _321
REMARK  121  A    between atoms: _321  and  _322
REMARK  122  A    between atoms: _325  and  _327
REMARK  123  A    between atoms: _327  and  _328
REMARK  124  A    between atoms: _327  and  _330
REMARK  125  A    between atoms: _330  and  _331
REMARK  126  A    between atoms: _341  and  _343
REMARK  127  A    between atoms: _343  and  _344
REMARK  128  A    between atoms: _347  and  _349
REMARK  129  A    between atoms: _349  and  _350
REMARK  130  A    between atoms: _349  and  _352
REMARK  131  A    between atoms: _352  and  _353
REMARK  132  A    between atoms: _353  and  _354
REMARK  133  A    between atoms: _357  and  _359
REMARK  134  A    between atoms: _359  and  _360
REMARK  135  A    between atoms: _359  and  _362
REMARK  136  A    between atoms: _362  and  _363
REMARK  137  A    between atoms: _363  and  _364
REMARK  138  A    between atoms: _364  and  _365
REMARK  139  A    between atoms: _365  and  _366
REMARK  140  A    between atoms: _370  and  _372
REMARK  141  A    between atoms: _372  and  _373
REMARK  142  A    between atoms: _372  and  _375
REMARK  143  A    between atoms: _375  and  _376
REMARK                            x       y       z     vdW  Elec       q    Type
REMARK                         _______ _______ _______ _____ _____    ______ ____
ROOT
ATOM      1  O   HOH     1       1.642   4.007  13.936  0.00  0.00    +0.000 OA
ENDROOT
TORSDOF 0
REMARK  Name = ../refined-set-2016/1uz1/1uz1_pocket.pdb
REMARK  143 active torsions:
REMARK  status: ('A' for Active; 'I' for Inactive)
REMARK    1  A    between atoms: _1  and  _3
REMARK    2  A    between atoms: _3  and  _4
REMARK    3  A    between atoms: _7  and  _9
REMARK    4  A    between atoms: _9  and  _10
REMARK    5  A    between atoms: _9  and  _12
REMARK    6  A    between atoms: _12  and  _13
REMARK    7  A    between atoms: _16  and  _18
REMARK    8  A    between atoms: _18  and  _19
REMARK    9  A    between atoms: _22  and  _24
REMARK   10  A    between atoms: _24  and  _25
REMARK   11  A    between atoms: _24  and  _27
REMARK   12  A    between atoms: _27  and  _28
REMARK   13  A    between atoms: _28  and  _29
REMARK   14  A    between atoms: _34  and  _36
REMARK   15  A    between atoms: _36  and  _37
REMARK   16  A    between atoms: _36  and  _39
REMARK   17  A    between atoms: _39  and  _40
REMARK   18  A    between atoms: _40  and  _41
REMARK   19  A    between atoms: _41  and  _42
REMARK   20  A    between atoms: _51  and  _53
REMARK   21  A    between atoms: _53  and  _54
REMARK   22  A    between atoms: _53  and  _56
REMARK   23  A    between atoms: _56  and  _57
REMARK   24  A    between atoms: _60  and  _62
REMARK   25  A    between atoms: _62  and  _63
REMARK   26  A    between atoms: _62  and  _65
REMARK   27  A    between atoms: _65  and  _66
REMARK   28  A    between atoms: _71  and  _73
REMARK   29  A    between atoms: _73  and  _74
REMARK   30  A    between atoms: _73  and  _76
REMARK   31  A    between atoms: _76  and  _77
REMARK   32  A    between atoms: _87  and  _89
REMARK   33  A    between atoms: _89  and  _90
REMARK   34  A    between atoms: _89  and  _92
REMARK   35  A    between atoms: _92  and  _93
REMARK   36  A    between atoms: _98  and  _100
REMARK   37  A    between atoms: _100  and  _101
REMARK   38  A    between atoms: _100  and  _103
REMARK   39  A    between atoms: _103  and  _104
REMARK   40  A    between atoms: _104  and  _105
REMARK   41  A    between atoms: _108  and  _110
REMARK   42  A    between atoms: _110  and  _111
REMARK   43  A    between atoms: _110  and  _113
REMARK   44  A    between atoms: _116  and  _118
REMARK   45  A    between atoms: _118  and  _119
REMARK   46  A    between atoms: _118  and  _121
REMARK   47  A    between atoms: _121  and  _122
REMARK   48  A    between atoms: _127  and  _129
REMARK   49  A    between atoms: _129  and  _130
REMARK   50  A    between atoms: _129  and  _132
REMARK   51  A    between atoms: _135  and  _137
REMARK   52  A    between atoms: _137  and  _138
REMARK   53  A    between atoms: _137  and  _140
REMARK   54  A    between atoms: _140  and  _141
REMARK   55  A    between atoms: _146  and  _148
REMARK   56  A    between atoms: _148  and  _149
REMARK   57  A    between atoms: _148  and  _151
REMARK   58  A    between atoms: _151  and  _152
REMARK   59  A    between atoms: _157  and  _159
REMARK   60  A    between atoms: _159  and  _160
REMARK   61  A    between atoms: _159  and  _162
REMARK   62  A    between atoms: _162  and  _163
REMARK   63  A    between atoms: _168  and  _170
REMARK   64  A    between atoms: _170  and  _171
REMARK   65  A    between atoms: _170  and  _173
REMARK   66  A    between atoms: _173  and  _174
REMARK   67  A    between atoms: _179  and  _180
REMARK   68  A    between atoms: _182  and  _184
REMARK   69  A    between atoms: _184  and  _185
REMARK   70  A    between atoms: _184  and  _187
REMARK   71  A    between atoms: _187  and  _188
REMARK   72  A    between atoms: _193  and  _194
REMARK   73  A    between atoms: _196  and  _198
REMARK   74  A    between atoms: _198  and  _199
REMARK   75  A    between atoms: _198  and  _201
REMARK   76  A    between atoms: _201  and  _202
REMARK   77  A    between atoms: _202  and  _203
REMARK   78  A    between atoms: _205  and  _207
REMARK   79  A    between atoms: _207  and  _208
REMARK   80  A    between atoms: _207  and  _210
REMARK   81  A    between atoms: _210  and  _211
REMARK   82  A    between atoms: _221  and  _223
REMARK   83  A    between atoms: _223  and  _224
REMARK   84  A    between atoms: _223  and  _226
REMARK   85  A    between atoms: _226  and  _227
REMARK   86  A    between atoms: _230  and  _232
REMARK   87  A    between atoms: _232  and  _233
REMARK   88  A    between atoms: _232  and  _235
REMARK   89  A    between atoms: _235  and  _236
REMARK   90  A    between atoms: _236  and  _237
REMARK   91  A    between atoms: _240  and  _242
REMARK   92  A    between atoms: _242  and  _243
REMARK   93  A    between atoms: _242  and  _245
REMARK   94  A    between atoms: _245  and  _246
REMARK   95  A    between atoms: _251  and  _253
REMARK   96  A    between atoms: _253  and  _254
REMARK   97  A    between atoms: _256  and  _258
REMARK   98  A    between atoms: _258  and  _259
REMARK   99  A    between atoms: _262  and  _264
REMARK  100  A    between atoms: _264  and  _265
REMARK  101  A    between atoms: _268  and  _270
REMARK  102  A    between atoms: _270  and  _271
REMARK  103  A    between atoms: _270  and  _273
REMARK  104  A    between atoms: _273  and  _274
REMARK  105  A    between atoms: _284  and  _286
REMARK  106  A    between atoms: _286  and  _287
REMARK  107  A    between atoms: _286  and  _289
REMARK  108  A    between atoms: _289  and  _290
REMARK  109  A    between atoms: _292  and  _294
REMARK  110  A    between atoms: _294  and  _295
REMARK  111  A    between atoms: _294  and  _297
REMARK  112  A    between atoms: _297  and  _298
REMARK  113  A    between atoms: _303  and  _305
REMARK  114  A    between atoms: _305  and  _306
REMARK  115  A    between atoms: _305  and  _308
REMARK  116  A    between atoms: _308  and  _309
REMARK  117  A    between atoms: _315  and  _317
REMARK  118  A    between atoms: _317  and  _318
REMARK  119  A    between atoms: _317  and  _320
REMARK  120  A    between atoms: _320  and  _321
REMARK  121  A    between atoms: _321  and  _322
REMARK  122  A    between atoms: _325  and  _327
REMARK  123  A    between atoms: _327  and  _328
REMARK  124  A    between atoms: _327  and  _330
REMARK  125  A    between atoms: _330  and  _331
REMARK  126  A    between atoms: _341  and  _343
REMARK  127  A    between atoms: _343  and  _344
REMARK  128  A    between atoms: _347  and  _349
REMARK  129  A    between atoms: _349  and  _350
REMARK  130  A    between atoms: _349  and  _352
REMARK  131  A    between atoms: _352  and  _353
REMARK  132  A    between atoms: _353  and  _354
REMARK  133  A    between atoms: _357  and  _359
REMARK  134  A    between atoms: _359  and  _360
REMARK  135  A    between atoms: _359  and  _362
REMARK  136  A    between atoms: _362  and  _363
REMARK  137  A    between atoms: _363  and  _364
REMARK  138  A    between atoms: _364  and  _365
REMARK  139  A    between atoms: _365  and  _366
REMARK  140  A    between atoms: _370  and  _372
REMARK  141  A    between atoms: _372  and  _373
REMARK  142  A    between atoms: _372  and  _375
REMARK  143  A    between atoms: _375  and  _376
REMARK                            x       y       z     vdW  Elec       q    Type
REMARK                         _______ _______ _______ _____ _____    ______ ____
ROOT
ATOM      1  O   HOH     1      -3.334   0.826   8.867  0.00  0.00    +0.000 OA
ENDROOT
TORSDOF 0
REMARK  Name = ../refined-set-2016/1uz1/1uz1_pocket.pdb
REMARK  143 active torsions:
REMARK  status: ('A' for Active; 'I' for Inactive)
REMARK    1  A    between atoms: _1  and  _3
REMARK    2  A    between atoms: _3  and  _4
REMARK    3  A    between atoms: _7  and  _9
REMARK    4  A    between atoms: _9  and  _10
REMARK    5  A    between atoms: _9  and  _12
REMARK    6  A    between atoms: _12  and  _13
REMARK    7  A    between atoms: _16  and  _18
REMARK    8  A    between atoms: _18  and  _19
REMARK    9  A    between atoms: _22  and  _24
REMARK   10  A    between atoms: _24  and  _25
REMARK   11  A    between atoms: _24  and  _27
REMARK   12  A    between atoms: _27  and  _28
REMARK   13  A    between atoms: _28  and  _29
REMARK   14  A    between atoms: _34  and  _36
REMARK   15  A    between atoms: _36  and  _37
REMARK   16  A    between atoms: _36  and  _39
REMARK   17  A    between atoms: _39  and  _40
REMARK   18  A    between atoms: _40  and  _41
REMARK   19  A    between atoms: _41  and  _42
REMARK   20  A    between atoms: _51  and  _53
REMARK   21  A    between atoms: _53  and  _54
REMARK   22  A    between atoms: _53  and  _56
REMARK   23  A    between atoms: _56  and  _57
REMARK   24  A    between atoms: _60  and  _62
REMARK   25  A    between atoms: _62  and  _63
REMARK   26  A    between atoms: _62  and  _65
REMARK   27  A    between atoms: _65  and  _66
REMARK   28  A    between atoms: _71  and  _73
REMARK   29  A    between atoms: _73  and  _74
REMARK   30  A    between atoms: _73  and  _76
REMARK   31  A    between atoms: _76  and  _77
REMARK   32  A    between atoms: _87  and  _89
REMARK   33  A    between atoms: _89  and  _90
REMARK   34  A    between atoms: _89  and  _92
REMARK   35  A    between atoms: _92  and  _93
REMARK   36  A    between atoms: _98  and  _100
REMARK   37  A    between atoms: _100  and  _101
REMARK   38  A    between atoms: _100  and  _103
REMARK   39  A    between atoms: _103  and  _104
REMARK   40  A    between atoms: _104  and  _105
REMARK   41  A    between atoms: _108  and  _110
REMARK   42  A    between atoms: _110  and  _111
REMARK   43  A    between atoms: _110  and  _113
REMARK   44  A    between atoms: _116  and  _118
REMARK   45  A    between atoms: _118  and  _119
REMARK   46  A    between atoms: _118  and  _121
REMARK   47  A    between atoms: _121  and  _122
REMARK   48  A    between atoms: _127  and  _129
REMARK   49  A    between atoms: _129  and  _130
REMARK   50  A    between atoms: _129  and  _132
REMARK   51  A    between atoms: _135  and  _137
REMARK   52  A    between atoms: _137  and  _138
REMARK   53  A    between atoms: _137  and  _140
REMARK   54  A    between atoms: _140  and  _141
REMARK   55  A    between atoms: _146  and  _148
REMARK   56  A    between atoms: _148  and  _149
REMARK   57  A    between atoms: _148  and  _151
REMARK   58  A    between atoms: _151  and  _152
REMARK   59  A    between atoms: _157  and  _159
REMARK   60  A    between atoms: _159  and  _160
REMARK   61  A    between atoms: _159  and  _162
REMARK   62  A    between atoms: _162  and  _163
REMARK   63  A    between atoms: _168  and  _170
REMARK   64  A    between atoms: _170  and  _171
REMARK   65  A    between atoms: _170  and  _173
REMARK   66  A    between atoms: _173  and  _174
REMARK   67  A    between atoms: _179  and  _180
REMARK   68  A    between atoms: _182  and  _184
REMARK   69  A    between atoms: _184  and  _185
REMARK   70  A    between atoms: _184  and  _187
REMARK   71  A    between atoms: _187  and  _188
REMARK   72  A    between atoms: _193  and  _194
REMARK   73  A    between atoms: _196  and  _198
REMARK   74  A    between atoms: _198  and  _199
REMARK   75  A    between atoms: _198  and  _201
REMARK   76  A    between atoms: _201  and  _202
REMARK   77  A    between atoms: _202  and  _203
REMARK   78  A    between atoms: _205  and  _207
REMARK   79  A    between atoms: _207  and  _208
REMARK   80  A    between atoms: _207  and  _210
REMARK   81  A    between atoms: _210  and  _211
REMARK   82  A    between atoms: _221  and  _223
REMARK   83  A    between atoms: _223  and  _224
REMARK   84  A    between atoms: _223  and  _226
REMARK   85  A    between atoms: _226  and  _227
REMARK   86  A    between atoms: _230  and  _232
REMARK   87  A    between atoms: _232  and  _233
REMARK   88  A    between atoms: _232  and  _235
REMARK   89  A    between atoms: _235  and  _236
REMARK   90  A    between atoms: _236  and  _237
REMARK   91  A    between atoms: _240  and  _242
REMARK   92  A    between atoms: _242  and  _243
REMARK   93  A    between atoms: _242  and  _245
REMARK   94  A    between atoms: _245  and  _246
REMARK   95  A    between atoms: _251  and  _253
REMARK   96  A    between atoms: _253  and  _254
REMARK   97  A    between atoms: _256  and  _258
REMARK   98  A    between atoms: _258  and  _259
REMARK   99  A    between atoms: _262  and  _264
REMARK  100  A    between atoms: _264  and  _265
REMARK  101  A    between atoms: _268  and  _270
REMARK  102  A    between atoms: _270  and  _271
REMARK  103  A    between atoms: _270  and  _273
REMARK  104  A    between atoms: _273  and  _274
REMARK  105  A    between atoms: _284  and  _286
REMARK  106  A    between atoms: _286  and  _287
REMARK  107  A    between atoms: _286  and  _289
REMARK  108  A    between atoms: _289  and  _290
REMARK  109  A    between atoms: _292  and  _294
REMARK  110  A    between atoms: _294  and  _295
REMARK  111  A    between atoms: _294  and  _297
REMARK  112  A    between atoms: _297  and  _298
REMARK  113  A    between atoms: _303  and  _305
REMARK  114  A    between atoms: _305  and  _306
REMARK  115  A    between atoms: _305  and  _308
REMARK  116  A    between atoms: _308  and  _309
REMARK  117  A    between atoms: _315  and  _317
REMARK  118  A    between atoms: _317  and  _318
REMARK  119  A    between atoms: _317  and  _320
REMARK  120  A    between atoms: _320  and  _321
REMARK  121  A    between atoms: _321  and  _322
REMARK  122  A    between atoms: _325  and  _327
REMARK  123  A    between atoms: _327  and  _328
REMARK  124  A    between atoms: _327  and  _330
REMARK  125  A    between atoms: _330  and  _331
REMARK  126  A    between atoms: _341  and  _343
REMARK  127  A    between atoms: _343  and  _344
REMARK  128  A    between atoms: _347  and  _349
REMARK  129  A    between atoms: _349  and  _350
REMARK  130  A    between atoms: _349  and  _352
REMARK  131  A    between atoms: _352  and  _353
REMARK  132  A    between atoms: _353  and  _354
REMARK  133  A    between atoms: _357  and  _359
REMARK  134  A    between atoms: _359  and  _360
REMARK  135  A    between atoms: _359  and  _362
REMARK  136  A    between atoms: _362  and  _363
REMARK  137  A    between atoms: _363  and  _364
REMARK  138  A    between atoms: _364  and  _365
REMARK  139  A    between atoms: _365  and  _366
REMARK  140  A    between atoms: _370  and  _372
REMARK  141  A    between atoms: _372  and  _373
REMARK  142  A    between atoms: _372  and  _375
REMARK  143  A    between atoms: _375  and  _376
REMARK                            x       y       z     vdW  Elec       q    Type
REMARK                         _______ _______ _______ _____ _____    ______ ____
ROOT
ATOM      1  O   HOH     1       5.891  15.151   3.941  0.00  0.00    +0.000 OA
ENDROOT
TORSDOF 0
REMARK  Name = ../refined-set-2016/1uz1/1uz1_pocket.pdb
REMARK  143 active torsions:
REMARK  status: ('A' for Active; 'I' for Inactive)
REMARK    1  A    between atoms: _1  and  _3
REMARK    2  A    between atoms: _3  and  _4
REMARK    3  A    between atoms: _7  and  _9
REMARK    4  A    between atoms: _9  and  _10
REMARK    5  A    between atoms: _9  and  _12
REMARK    6  A    between atoms: _12  and  _13
REMARK    7  A    between atoms: _16  and  _18
REMARK    8  A    between atoms: _18  and  _19
REMARK    9  A    between atoms: _22  and  _24
REMARK   10  A    between atoms: _24  and  _25
REMARK   11  A    between atoms: _24  and  _27
REMARK   12  A    between atoms: _27  and  _28
REMARK   13  A    between atoms: _28  and  _29
REMARK   14  A    between atoms: _34  and  _36
REMARK   15  A    between atoms: _36  and  _37
REMARK   16  A    between atoms: _36  and  _39
REMARK   17  A    between atoms: _39  and  _40
REMARK   18  A    between atoms: _40  and  _41
REMARK   19  A    between atoms: _41  and  _42
REMARK   20  A    between atoms: _51  and  _53
REMARK   21  A    between atoms: _53  and  _54
REMARK   22  A    between atoms: _53  and  _56
REMARK   23  A    between atoms: _56  and  _57
REMARK   24  A    between atoms: _60  and  _62
REMARK   25  A    between atoms: _62  and  _63
REMARK   26  A    between atoms: _62  and  _65
REMARK   27  A    between atoms: _65  and  _66
REMARK   28  A    between atoms: _71  and  _73
REMARK   29  A    between atoms: _73  and  _74
REMARK   30  A    between atoms: _73  and  _76
REMARK   31  A    between atoms: _76  and  _77
REMARK   32  A    between atoms: _87  and  _89
REMARK   33  A    between atoms: _89  and  _90
REMARK   34  A    between atoms: _89  and  _92
REMARK   35  A    between atoms: _92  and  _93
REMARK   36  A    between atoms: _98  and  _100
REMARK   37  A    between atoms: _100  and  _101
REMARK   38  A    between atoms: _100  and  _103
REMARK   39  A    between atoms: _103  and  _104
REMARK   40  A    between atoms: _104  and  _105
REMARK   41  A    between atoms: _108  and  _110
REMARK   42  A    between atoms: _110  and  _111
REMARK   43  A    between atoms: _110  and  _113
REMARK   44  A    between atoms: _116  and  _118
REMARK   45  A    between atoms: _118  and  _119
REMARK   46  A    between atoms: _118  and  _121
REMARK   47  A    between atoms: _121  and  _122
REMARK   48  A    between atoms: _127  and  _129
REMARK   49  A    between atoms: _129  and  _130
REMARK   50  A    between atoms: _129  and  _132
REMARK   51  A    between atoms: _135  and  _137
REMARK   52  A    between atoms: _137  and  _138
REMARK   53  A    between atoms: _137  and  _140
REMARK   54  A    between atoms: _140  and  _141
REMARK   55  A    between atoms: _146  and  _148
REMARK   56  A    between atoms: _148  and  _149
REMARK   57  A    between atoms: _148  and  _151
REMARK   58  A    between atoms: _151  and  _152
REMARK   59  A    between atoms: _157  and  _159
REMARK   60  A    between atoms: _159  and  _160
REMARK   61  A    between atoms: _159  and  _162
REMARK   62  A    between atoms: _162  and  _163
REMARK   63  A    between atoms: _168  and  _170
REMARK   64  A    between atoms: _170  and  _171
REMARK   65  A    between atoms: _170  and  _173
REMARK   66  A    between atoms: _173  and  _174
REMARK   67  A    between atoms: _179  and  _180
REMARK   68  A    between atoms: _182  and  _184
REMARK   69  A    between atoms: _184  and  _185
REMARK   70  A    between atoms: _184  and  _187
REMARK   71  A    between atoms: _187  and  _188
REMARK   72  A    between atoms: _193  and  _194
REMARK   73  A    between atoms: _196  and  _198
REMARK   74  A    between atoms: _198  and  _199
REMARK   75  A    between atoms: _198  and  _201
REMARK   76  A    between atoms: _201  and  _202
REMARK   77  A    between atoms: _202  and  _203
REMARK   78  A    between atoms: _205  and  _207
REMARK   79  A    between atoms: _207  and  _208
REMARK   80  A    between atoms: _207  and  _210
REMARK   81  A    between atoms: _210  and  _211
REMARK   82  A    between atoms: _221  and  _223
REMARK   83  A    between atoms: _223  and  _224
REMARK   84  A    between atoms: _223  and  _226
REMARK   85  A    between atoms: _226  and  _227
REMARK   86  A    between atoms: _230  and  _232
REMARK   87  A    between atoms: _232  and  _233
REMARK   88  A    between atoms: _232  and  _235
REMARK   89  A    between atoms: _235  and  _236
REMARK   90  A    between atoms: _236  and  _237
REMARK   91  A    between atoms: _240  and  _242
REMARK   92  A    between atoms: _242  and  _243
REMARK   93  A    between atoms: _242  and  _245
REMARK   94  A    between atoms: _245  and  _246
REMARK   95  A    between atoms: _251  and  _253
REMARK   96  A    between atoms: _253  and  _254
REMARK   97  A    between atoms: _256  and  _258
REMARK   98  A    between atoms: _258  and  _259
REMARK   99  A    between atoms: _262  and  _264
REMARK  100  A    between atoms: _264  and  _265
REMARK  101  A    between atoms: _268  and  _270
REMARK  102  A    between atoms: _270  and  _271
REMARK  103  A    between atoms: _270  and  _273
REMARK  104  A    between atoms: _273  and  _274
REMARK  105  A    between atoms: _284  and  _286
REMARK  106  A    between atoms: _286  and  _287
REMARK  107  A    between atoms: _286  and  _289
REMARK  108  A    between atoms: _289  and  _290
REMARK  109  A    between atoms: _292  and  _294
REMARK  110  A    between atoms: _294  and  _295
REMARK  111  A    between atoms: _294  and  _297
REMARK  112  A    between atoms: _297  and  _298
REMARK  113  A    between atoms: _303  and  _305
REMARK  114  A    between atoms: _305  and  _306
REMARK  115  A    between atoms: _305  and  _308
REMARK  116  A    between atoms: _308  and  _309
REMARK  117  A    between atoms: _315  and  _317
REMARK  118  A    between atoms: _317  and  _318
REMARK  119  A    between atoms: _317  and  _320
REMARK  120  A    between atoms: _320  and  _321
REMARK  121  A    between atoms: _321  and  _322
REMARK  122  A    between atoms: _325  and  _327
REMARK  123  A    between atoms: _327  and  _328
REMARK  124  A    between atoms: _327  and  _330
REMARK  125  A    between atoms: _330  and  _331
REMARK  126  A    between atoms: _341  and  _343
REMARK  127  A    between atoms: _343  and  _344
REMARK  128  A    between atoms: _347  and  _349
REMARK  129  A    between atoms: _349  and  _350
REMARK  130  A    between atoms: _349  and  _352
REMARK  131  A    between atoms: _352  and  _353
REMARK  132  A    between atoms: _353  and  _354
REMARK  133  A    between atoms: _357  and  _359
REMARK  134  A    between atoms: _359  and  _360
REMARK  135  A    between atoms: _359  and  _362
REMARK  136  A    between atoms: _362  and  _363
REMARK  137  A    between atoms: _363  and  _364
REMARK  138  A    between atoms: _364  and  _365
REMARK  139  A    between atoms: _365  and  _366
REMARK  140  A    between atoms: _370  and  _372
REMARK  141  A    between atoms: _372  and  _373
REMARK  142  A    between atoms: _372  and  _375
REMARK  143  A    between atoms: _375  and  _376
REMARK                            x       y       z     vdW  Elec       q    Type
REMARK                         _______ _______ _______ _____ _____    ______ ____
ROOT
ATOM      1  O   HOH     1      -1.420   9.667  14.271  0.00  0.00    +0.000 OA
ENDROOT
TORSDOF 0
REMARK  Name = ../refined-set-2016/1uz1/1uz1_pocket.pdb
REMARK  143 active torsions:
REMARK  status: ('A' for Active; 'I' for Inactive)
REMARK    1  A    between atoms: _1  and  _3
REMARK    2  A    between atoms: _3  and  _4
REMARK    3  A    between atoms: _7  and  _9
REMARK    4  A    between atoms: _9  and  _10
REMARK    5  A    between atoms: _9  and  _12
REMARK    6  A    between atoms: _12  and  _13
REMARK    7  A    between atoms: _16  and  _18
REMARK    8  A    between atoms: _18  and  _19
REMARK    9  A    between atoms: _22  and  _24
REMARK   10  A    between atoms: _24  and  _25
REMARK   11  A    between atoms: _24  and  _27
REMARK   12  A    between atoms: _27  and  _28
REMARK   13  A    between atoms: _28  and  _29
REMARK   14  A    between atoms: _34  and  _36
REMARK   15  A    between atoms: _36  and  _37
REMARK   16  A    between atoms: _36  and  _39
REMARK   17  A    between atoms: _39  and  _40
REMARK   18  A    between atoms: _40  and  _41
REMARK   19  A    between atoms: _41  and  _42
REMARK   20  A    between atoms: _51  and  _53
REMARK   21  A    between atoms: _53  and  _54
REMARK   22  A    between atoms: _53  and  _56
REMARK   23  A    between atoms: _56  and  _57
REMARK   24  A    between atoms: _60  and  _62
REMARK   25  A    between atoms: _62  and  _63
REMARK   26  A    between atoms: _62  and  _65
REMARK   27  A    between atoms: _65  and  _66
REMARK   28  A    between atoms: _71  and  _73
REMARK   29  A    between atoms: _73  and  _74
REMARK   30  A    between atoms: _73  and  _76
REMARK   31  A    between atoms: _76  and  _77
REMARK   32  A    between atoms: _87  and  _89
REMARK   33  A    between atoms: _89  and  _90
REMARK   34  A    between atoms: _89  and  _92
REMARK   35  A    between atoms: _92  and  _93
REMARK   36  A    between atoms: _98  and  _100
REMARK   37  A    between atoms: _100  and  _101
REMARK   38  A    between atoms: _100  and  _103
REMARK   39  A    between atoms: _103  and  _104
REMARK   40  A    between atoms: _104  and  _105
REMARK   41  A    between atoms: _108  and  _110
REMARK   42  A    between atoms: _110  and  _111
REMARK   43  A    between atoms: _110  and  _113
REMARK   44  A    between atoms: _116  and  _118
REMARK   45  A    between atoms: _118  and  _119
REMARK   46  A    between atoms: _118  and  _121
REMARK   47  A    between atoms: _121  and  _122
REMARK   48  A    between atoms: _127  and  _129
REMARK   49  A    between atoms: _129  and  _130
REMARK   50  A    between atoms: _129  and  _132
REMARK   51  A    between atoms: _135  and  _137
REMARK   52  A    between atoms: _137  and  _138
REMARK   53  A    between atoms: _137  and  _140
REMARK   54  A    between atoms: _140  and  _141
REMARK   55  A    between atoms: _146  and  _148
REMARK   56  A    between atoms: _148  and  _149
REMARK   57  A    between atoms: _148  and  _151
REMARK   58  A    between atoms: _151  and  _152
REMARK   59  A    between atoms: _157  and  _159
REMARK   60  A    between atoms: _159  and  _160
REMARK   61  A    between atoms: _159  and  _162
REMARK   62  A    between atoms: _162  and  _163
REMARK   63  A    between atoms: _168  and  _170
REMARK   64  A    between atoms: _170  and  _171
REMARK   65  A    between atoms: _170  and  _173
REMARK   66  A    between atoms: _173  and  _174
REMARK   67  A    between atoms: _179  and  _180
REMARK   68  A    between atoms: _182  and  _184
REMARK   69  A    between atoms: _184  and  _185
REMARK   70  A    between atoms: _184  and  _187
REMARK   71  A    between atoms: _187  and  _188
REMARK   72  A    between atoms: _193  and  _194
REMARK   73  A    between atoms: _196  and  _198
REMARK   74  A    between atoms: _198  and  _199
REMARK   75  A    between atoms: _198  and  _201
REMARK   76  A    between atoms: _201  and  _202
REMARK   77  A    between atoms: _202  and  _203
REMARK   78  A    between atoms: _205  and  _207
REMARK   79  A    between atoms: _207  and  _208
REMARK   80  A    between atoms: _207  and  _210
REMARK   81  A    between atoms: _210  and  _211
REMARK   82  A    between atoms: _221  and  _223
REMARK   83  A    between atoms: _223  and  _224
REMARK   84  A    between atoms: _223  and  _226
REMARK   85  A    between atoms: _226  and  _227
REMARK   86  A    between atoms: _230  and  _232
REMARK   87  A    between atoms: _232  and  _233
REMARK   88  A    between atoms: _232  and  _235
REMARK   89  A    between atoms: _235  and  _236
REMARK   90  A    between atoms: _236  and  _237
REMARK   91  A    between atoms: _240  and  _242
REMARK   92  A    between atoms: _242  and  _243
REMARK   93  A    between atoms: _242  and  _245
REMARK   94  A    between atoms: _245  and  _246
REMARK   95  A    between atoms: _251  and  _253
REMARK   96  A    between atoms: _253  and  _254
REMARK   97  A    between atoms: _256  and  _258
REMARK   98  A    between atoms: _258  and  _259
REMARK   99  A    between atoms: _262  and  _264
REMARK  100  A    between atoms: _264  and  _265
REMARK  101  A    between atoms: _268  and  _270
REMARK  102  A    between atoms: _270  and  _271
REMARK  103  A    between atoms: _270  and  _273
REMARK  104  A    between atoms: _273  and  _274
REMARK  105  A    between atoms: _284  and  _286
REMARK  106  A    between atoms: _286  and  _287
REMARK  107  A    between atoms: _286  and  _289
REMARK  108  A    between atoms: _289  and  _290
REMARK  109  A    between atoms: _292  and  _294
REMARK  110  A    between atoms: _294  and  _295
REMARK  111  A    between atoms: _294  and  _297
REMARK  112  A    between atoms: _297  and  _298
REMARK  113  A    between atoms: _303  and  _305
REMARK  114  A    between atoms: _305  and  _306
REMARK  115  A    between atoms: _305  and  _308
REMARK  116  A    between atoms: _308  and  _309
REMARK  117  A    between atoms: _315  and  _317
REMARK  118  A    between atoms: _317  and  _318
REMARK  119  A    between atoms: _317  and  _320
REMARK  120  A    between atoms: _320  and  _321
REMARK  121  A    between atoms: _321  and  _322
REMARK  122  A    between atoms: _325  and  _327
REMARK  123  A    between atoms: _327  and  _328
REMARK  124  A    between atoms: _327  and  _330
REMARK  125  A    between atoms: _330  and  _331
REMARK  126  A    between atoms: _341  and  _343
REMARK  127  A    between atoms: _343  and  _344
REMARK  128  A    between atoms: _347  and  _349
REMARK  129  A    between atoms: _349  and  _350
REMARK  130  A    between atoms: _349  and  _352
REMARK  131  A    between atoms: _352  and  _353
REMARK  132  A    between atoms: _353  and  _354
REMARK  133  A    between atoms: _357  and  _359
REMARK  134  A    between atoms: _359  and  _360
REMARK  135  A    between atoms: _359  and  _362
REMARK  136  A    between atoms: _362  and  _363
REMARK  137  A    between atoms: _363  and  _364
REMARK  138  A    between atoms: _364  and  _365
REMARK  139  A    between atoms: _365  and  _366
REMARK  140  A    between atoms: _370  and  _372
REMARK  141  A    between atoms: _372  and  _373
REMARK  142  A    between atoms: _372  and  _375
REMARK  143  A    between atoms: _375  and  _376
REMARK                            x       y       z     vdW  Elec       q    Type
REMARK                         _______ _______ _______ _____ _____    ______ ____
ROOT
ATOM      1  O   HOH     1       0.516   8.374  12.359  0.00  0.00    +0.000 OA
ENDROOT
TORSDOF 0
REMARK  Name = ../refined-set-2016/1uz1/1uz1_pocket.pdb
REMARK  143 active torsions:
REMARK  status: ('A' for Active; 'I' for Inactive)
REMARK    1  A    between atoms: _1  and  _3
REMARK    2  A    between atoms: _3  and  _4
REMARK    3  A    between atoms: _7  and  _9
REMARK    4  A    between atoms: _9  and  _10
REMARK    5  A    between atoms: _9  and  _12
REMARK    6  A    between atoms: _12  and  _13
REMARK    7  A    between atoms: _16  and  _18
REMARK    8  A    between atoms: _18  and  _19
REMARK    9  A    between atoms: _22  and  _24
REMARK   10  A    between atoms: _24  and  _25
REMARK   11  A    between atoms: _24  and  _27
REMARK   12  A    between atoms: _27  and  _28
REMARK   13  A    between atoms: _28  and  _29
REMARK   14  A    between atoms: _34  and  _36
REMARK   15  A    between atoms: _36  and  _37
REMARK   16  A    between atoms: _36  and  _39
REMARK   17  A    between atoms: _39  and  _40
REMARK   18  A    between atoms: _40  and  _41
REMARK   19  A    between atoms: _41  and  _42
REMARK   20  A    between atoms: _51  and  _53
REMARK   21  A    between atoms: _53  and  _54
REMARK   22  A    between atoms: _53  and  _56
REMARK   23  A    between atoms: _56  and  _57
REMARK   24  A    between atoms: _60  and  _62
REMARK   25  A    between atoms: _62  and  _63
REMARK   26  A    between atoms: _62  and  _65
REMARK   27  A    between atoms: _65  and  _66
REMARK   28  A    between atoms: _71  and  _73
REMARK   29  A    between atoms: _73  and  _74
REMARK   30  A    between atoms: _73  and  _76
REMARK   31  A    between atoms: _76  and  _77
REMARK   32  A    between atoms: _87  and  _89
REMARK   33  A    between atoms: _89  and  _90
REMARK   34  A    between atoms: _89  and  _92
REMARK   35  A    between atoms: _92  and  _93
REMARK   36  A    between atoms: _98  and  _100
REMARK   37  A    between atoms: _100  and  _101
REMARK   38  A    between atoms: _100  and  _103
REMARK   39  A    between atoms: _103  and  _104
REMARK   40  A    between atoms: _104  and  _105
REMARK   41  A    between atoms: _108  and  _110
REMARK   42  A    between atoms: _110  and  _111
REMARK   43  A    between atoms: _110  and  _113
REMARK   44  A    between atoms: _116  and  _118
REMARK   45  A    between atoms: _118  and  _119
REMARK   46  A    between atoms: _118  and  _121
REMARK   47  A    between atoms: _121  and  _122
REMARK   48  A    between atoms: _127  and  _129
REMARK   49  A    between atoms: _129  and  _130
REMARK   50  A    between atoms: _129  and  _132
REMARK   51  A    between atoms: _135  and  _137
REMARK   52  A    between atoms: _137  and  _138
REMARK   53  A    between atoms: _137  and  _140
REMARK   54  A    between atoms: _140  and  _141
REMARK   55  A    between atoms: _146  and  _148
REMARK   56  A    between atoms: _148  and  _149
REMARK   57  A    between atoms: _148  and  _151
REMARK   58  A    between atoms: _151  and  _152
REMARK   59  A    between atoms: _157  and  _159
REMARK   60  A    between atoms: _159  and  _160
REMARK   61  A    between atoms: _159  and  _162
REMARK   62  A    between atoms: _162  and  _163
REMARK   63  A    between atoms: _168  and  _170
REMARK   64  A    between atoms: _170  and  _171
REMARK   65  A    between atoms: _170  and  _173
REMARK   66  A    between atoms: _173  and  _174
REMARK   67  A    between atoms: _179  and  _180
REMARK   68  A    between atoms: _182  and  _184
REMARK   69  A    between atoms: _184  and  _185
REMARK   70  A    between atoms: _184  and  _187
REMARK   71  A    between atoms: _187  and  _188
REMARK   72  A    between atoms: _193  and  _194
REMARK   73  A    between atoms: _196  and  _198
REMARK   74  A    between atoms: _198  and  _199
REMARK   75  A    between atoms: _198  and  _201
REMARK   76  A    between atoms: _201  and  _202
REMARK   77  A    between atoms: _202  and  _203
REMARK   78  A    between atoms: _205  and  _207
REMARK   79  A    between atoms: _207  and  _208
REMARK   80  A    between atoms: _207  and  _210
REMARK   81  A    between atoms: _210  and  _211
REMARK   82  A    between atoms: _221  and  _223
REMARK   83  A    between atoms: _223  and  _224
REMARK   84  A    between atoms: _223  and  _226
REMARK   85  A    between atoms: _226  and  _227
REMARK   86  A    between atoms: _230  and  _232
REMARK   87  A    between atoms: _232  and  _233
REMARK   88  A    between atoms: _232  and  _235
REMARK   89  A    between atoms: _235  and  _236
REMARK   90  A    between atoms: _236  and  _237
REMARK   91  A    between atoms: _240  and  _242
REMARK   92  A    between atoms: _242  and  _243
REMARK   93  A    between atoms: _242  and  _245
REMARK   94  A    between atoms: _245  and  _246
REMARK   95  A    between atoms: _251  and  _253
REMARK   96  A    between atoms: _253  and  _254
REMARK   97  A    between atoms: _256  and  _258
REMARK   98  A    between atoms: _258  and  _259
REMARK   99  A    between atoms: _262  and  _264
REMARK  100  A    between atoms: _264  and  _265
REMARK  101  A    between atoms: _268  and  _270
REMARK  102  A    between atoms: _270  and  _271
REMARK  103  A    between atoms: _270  and  _273
REMARK  104  A    between atoms: _273  and  _274
REMARK  105  A    between atoms: _284  and  _286
REMARK  106  A    between atoms: _286  and  _287
REMARK  107  A    between atoms: _286  and  _289
REMARK  108  A    between atoms: _289  and  _290
REMARK  109  A    between atoms: _292  and  _294
REMARK  110  A    between atoms: _294  and  _295
REMARK  111  A    between atoms: _294  and  _297
REMARK  112  A    between atoms: _297  and  _298
REMARK  113  A    between atoms: _303  and  _305
REMARK  114  A    between atoms: _305  and  _306
REMARK  115  A    between atoms: _305  and  _308
REMARK  116  A    between atoms: _308  and  _309
REMARK  117  A    between atoms: _315  and  _317
REMARK  118  A    between atoms: _317  and  _318
REMARK  119  A    between atoms: _317  and  _320
REMARK  120  A    between atoms: _320  and  _321
REMARK  121  A    between atoms: _321  and  _322
REMARK  122  A    between atoms: _325  and  _327
REMARK  123  A    between atoms: _327  and  _328
REMARK  124  A    between atoms: _327  and  _330
REMARK  125  A    between atoms: _330  and  _331
REMARK  126  A    between atoms: _341  and  _343
REMARK  127  A    between atoms: _343  and  _344
REMARK  128  A    between atoms: _347  and  _349
REMARK  129  A    between atoms: _349  and  _350
REMARK  130  A    between atoms: _349  and  _352
REMARK  131  A    between atoms: _352  and  _353
REMARK  132  A    between atoms: _353  and  _354
REMARK  133  A    between atoms: _357  and  _359
REMARK  134  A    between atoms: _359  and  _360
REMARK  135  A    between atoms: _359  and  _362
REMARK  136  A    between atoms: _362  and  _363
REMARK  137  A    between atoms: _363  and  _364
REMARK  138  A    between atoms: _364  and  _365
REMARK  139  A    between atoms: _365  and  _366
REMARK  140  A    between atoms: _370  and  _372
REMARK  141  A    between atoms: _372  and  _373
REMARK  142  A    between atoms: _372  and  _375
REMARK  143  A    between atoms: _375  and  _376
REMARK                            x       y       z     vdW  Elec       q    Type
REMARK                         _______ _______ _______ _____ _____    ______ ____
ROOT
ATOM      1  O   HOH     1       1.992   3.705   6.500  0.00  0.00    +0.000 OA
ENDROOT
TORSDOF 0
REMARK  Name = ../refined-set-2016/1uz1/1uz1_pocket.pdb
REMARK  143 active torsions:
REMARK  status: ('A' for Active; 'I' for Inactive)
REMARK    1  A    between atoms: _1  and  _3
REMARK    2  A    between atoms: _3  and  _4
REMARK    3  A    between atoms: _7  and  _9
REMARK    4  A    between atoms: _9  and  _10
REMARK    5  A    between atoms: _9  and  _12
REMARK    6  A    between atoms: _12  and  _13
REMARK    7  A    between atoms: _16  and  _18
REMARK    8  A    between atoms: _18  and  _19
REMARK    9  A    between atoms: _22  and  _24
REMARK   10  A    between atoms: _24  and  _25
REMARK   11  A    between atoms: _24  and  _27
REMARK   12  A    between atoms: _27  and  _28
REMARK   13  A    between atoms: _28  and  _29
REMARK   14  A    between atoms: _34  and  _36
REMARK   15  A    between atoms: _36  and  _37
REMARK   16  A    between atoms: _36  and  _39
REMARK   17  A    between atoms: _39  and  _40
REMARK   18  A    between atoms: _40  and  _41
REMARK   19  A    between atoms: _41  and  _42
REMARK   20  A    between atoms: _51  and  _53
REMARK   21  A    between atoms: _53  and  _54
REMARK   22  A    between atoms: _53  and  _56
REMARK   23  A    between atoms: _56  and  _57
REMARK   24  A    between atoms: _60  and  _62
REMARK   25  A    between atoms: _62  and  _63
REMARK   26  A    between atoms: _62  and  _65
REMARK   27  A    between atoms: _65  and  _66
REMARK   28  A    between atoms: _71  and  _73
REMARK   29  A    between atoms: _73  and  _74
REMARK   30  A    between atoms: _73  and  _76
REMARK   31  A    between atoms: _76  and  _77
REMARK   32  A    between atoms: _87  and  _89
REMARK   33  A    between atoms: _89  and  _90
REMARK   34  A    between atoms: _89  and  _92
REMARK   35  A    between atoms: _92  and  _93
REMARK   36  A    between atoms: _98  and  _100
REMARK   37  A    between atoms: _100  and  _101
REMARK   38  A    between atoms: _100  and  _103
REMARK   39  A    between atoms: _103  and  _104
REMARK   40  A    between atoms: _104  and  _105
REMARK   41  A    between atoms: _108  and  _110
REMARK   42  A    between atoms: _110  and  _111
REMARK   43  A    between atoms: _110  and  _113
REMARK   44  A    between atoms: _116  and  _118
REMARK   45  A    between atoms: _118  and  _119
REMARK   46  A    between atoms: _118  and  _121
REMARK   47  A    between atoms: _121  and  _122
REMARK   48  A    between atoms: _127  and  _129
REMARK   49  A    between atoms: _129  and  _130
REMARK   50  A    between atoms: _129  and  _132
REMARK   51  A    between atoms: _135  and  _137
REMARK   52  A    between atoms: _137  and  _138
REMARK   53  A    between atoms: _137  and  _140
REMARK   54  A    between atoms: _140  and  _141
REMARK   55  A    between atoms: _146  and  _148
REMARK   56  A    between atoms: _148  and  _149
REMARK   57  A    between atoms: _148  and  _151
REMARK   58  A    between atoms: _151  and  _152
REMARK   59  A    between atoms: _157  and  _159
REMARK   60  A    between atoms: _159  and  _160
REMARK   61  A    between atoms: _159  and  _162
REMARK   62  A    between atoms: _162  and  _163
REMARK   63  A    between atoms: _168  and  _170
REMARK   64  A    between atoms: _170  and  _171
REMARK   65  A    between atoms: _170  and  _173
REMARK   66  A    between atoms: _173  and  _174
REMARK   67  A    between atoms: _179  and  _180
REMARK   68  A    between atoms: _182  and  _184
REMARK   69  A    between atoms: _184  and  _185
REMARK   70  A    between atoms: _184  and  _187
REMARK   71  A    between atoms: _187  and  _188
REMARK   72  A    between atoms: _193  and  _194
REMARK   73  A    between atoms: _196  and  _198
REMARK   74  A    between atoms: _198  and  _199
REMARK   75  A    between atoms: _198  and  _201
REMARK   76  A    between atoms: _201  and  _202
REMARK   77  A    between atoms: _202  and  _203
REMARK   78  A    between atoms: _205  and  _207
REMARK   79  A    between atoms: _207  and  _208
REMARK   80  A    between atoms: _207  and  _210
REMARK   81  A    between atoms: _210  and  _211
REMARK   82  A    between atoms: _221  and  _223
REMARK   83  A    between atoms: _223  and  _224
REMARK   84  A    between atoms: _223  and  _226
REMARK   85  A    between atoms: _226  and  _227
REMARK   86  A    between atoms: _230  and  _232
REMARK   87  A    between atoms: _232  and  _233
REMARK   88  A    between atoms: _232  and  _235
REMARK   89  A    between atoms: _235  and  _236
REMARK   90  A    between atoms: _236  and  _237
REMARK   91  A    between atoms: _240  and  _242
REMARK   92  A    between atoms: _242  and  _243
REMARK   93  A    between atoms: _242  and  _245
REMARK   94  A    between atoms: _245  and  _246
REMARK   95  A    between atoms: _251  and  _253
REMARK   96  A    between atoms: _253  and  _254
REMARK   97  A    between atoms: _256  and  _258
REMARK   98  A    between atoms: _258  and  _259
REMARK   99  A    between atoms: _262  and  _264
REMARK  100  A    between atoms: _264  and  _265
REMARK  101  A    between atoms: _268  and  _270
REMARK  102  A    between atoms: _270  and  _271
REMARK  103  A    between atoms: _270  and  _273
REMARK  104  A    between atoms: _273  and  _274
REMARK  105  A    between atoms: _284  and  _286
REMARK  106  A    between atoms: _286  and  _287
REMARK  107  A    between atoms: _286  and  _289
REMARK  108  A    between atoms: _289  and  _290
REMARK  109  A    between atoms: _292  and  _294
REMARK  110  A    between atoms: _294  and  _295
REMARK  111  A    between atoms: _294  and  _297
REMARK  112  A    between atoms: _297  and  _298
REMARK  113  A    between atoms: _303  and  _305
REMARK  114  A    between atoms: _305  and  _306
REMARK  115  A    between atoms: _305  and  _308
REMARK  116  A    between atoms: _308  and  _309
REMARK  117  A    between atoms: _315  and  _317
REMARK  118  A    between atoms: _317  and  _318
REMARK  119  A    between atoms: _317  and  _320
REMARK  120  A    between atoms: _320  and  _321
REMARK  121  A    between atoms: _321  and  _322
REMARK  122  A    between atoms: _325  and  _327
REMARK  123  A    between atoms: _327  and  _328
REMARK  124  A    between atoms: _327  and  _330
REMARK  125  A    between atoms: _330  and  _331
REMARK  126  A    between atoms: _341  and  _343
REMARK  127  A    between atoms: _343  and  _344
REMARK  128  A    between atoms: _347  and  _349
REMARK  129  A    between atoms: _349  and  _350
REMARK  130  A    between atoms: _349  and  _352
REMARK  131  A    between atoms: _352  and  _353
REMARK  132  A    between atoms: _353  and  _354
REMARK  133  A    between atoms: _357  and  _359
REMARK  134  A    between atoms: _359  and  _360
REMARK  135  A    between atoms: _359  and  _362
REMARK  136  A    between atoms: _362  and  _363
REMARK  137  A    between atoms: _363  and  _364
REMARK  138  A    between atoms: _364  and  _365
REMARK  139  A    between atoms: _365  and  _366
REMARK  140  A    between atoms: _370  and  _372
REMARK  141  A    between atoms: _372  and  _373
REMARK  142  A    between atoms: _372  and  _375
REMARK  143  A    between atoms: _375  and  _376
REMARK                            x       y       z     vdW  Elec       q    Type
REMARK                         _______ _______ _______ _____ _____    ______ ____
ROOT
ATOM      1  O   HOH     1       7.484   8.253   9.719  0.00  0.00    +0.000 OA
ENDROOT
TORSDOF 0
REMARK  Name = ../refined-set-2016/1uz1/1uz1_pocket.pdb
REMARK  143 active torsions:
REMARK  status: ('A' for Active; 'I' for Inactive)
REMARK    1  A    between atoms: _1  and  _3
REMARK    2  A    between atoms: _3  and  _4
REMARK    3  A    between atoms: _7  and  _9
REMARK    4  A    between atoms: _9  and  _10
REMARK    5  A    between atoms: _9  and  _12
REMARK    6  A    between atoms: _12  and  _13
REMARK    7  A    between atoms: _16  and  _18
REMARK    8  A    between atoms: _18  and  _19
REMARK    9  A    between atoms: _22  and  _24
REMARK   10  A    between atoms: _24  and  _25
REMARK   11  A    between atoms: _24  and  _27
REMARK   12  A    between atoms: _27  and  _28
REMARK   13  A    between atoms: _28  and  _29
REMARK   14  A    between atoms: _34  and  _36
REMARK   15  A    between atoms: _36  and  _37
REMARK   16  A    between atoms: _36  and  _39
REMARK   17  A    between atoms: _39  and  _40
REMARK   18  A    between atoms: _40  and  _41
REMARK   19  A    between atoms: _41  and  _42
REMARK   20  A    between atoms: _51  and  _53
REMARK   21  A    between atoms: _53  and  _54
REMARK   22  A    between atoms: _53  and  _56
REMARK   23  A    between atoms: _56  and  _57
REMARK   24  A    between atoms: _60  and  _62
REMARK   25  A    between atoms: _62  and  _63
REMARK   26  A    between atoms: _62  and  _65
REMARK   27  A    between atoms: _65  and  _66
REMARK   28  A    between atoms: _71  and  _73
REMARK   29  A    between atoms: _73  and  _74
REMARK   30  A    between atoms: _73  and  _76
REMARK   31  A    between atoms: _76  and  _77
REMARK   32  A    between atoms: _87  and  _89
REMARK   33  A    between atoms: _89  and  _90
REMARK   34  A    between atoms: _89  and  _92
REMARK   35  A    between atoms: _92  and  _93
REMARK   36  A    between atoms: _98  and  _100
REMARK   37  A    between atoms: _100  and  _101
REMARK   38  A    between atoms: _100  and  _103
REMARK   39  A    between atoms: _103  and  _104
REMARK   40  A    between atoms: _104  and  _105
REMARK   41  A    between atoms: _108  and  _110
REMARK   42  A    between atoms: _110  and  _111
REMARK   43  A    between atoms: _110  and  _113
REMARK   44  A    between atoms: _116  and  _118
REMARK   45  A    between atoms: _118  and  _119
REMARK   46  A    between atoms: _118  and  _121
REMARK   47  A    between atoms: _121  and  _122
REMARK   48  A    between atoms: _127  and  _129
REMARK   49  A    between atoms: _129  and  _130
REMARK   50  A    between atoms: _129  and  _132
REMARK   51  A    between atoms: _135  and  _137
REMARK   52  A    between atoms: _137  and  _138
REMARK   53  A    between atoms: _137  and  _140
REMARK   54  A    between atoms: _140  and  _141
REMARK   55  A    between atoms: _146  and  _148
REMARK   56  A    between atoms: _148  and  _149
REMARK   57  A    between atoms: _148  and  _151
REMARK   58  A    between atoms: _151  and  _152
REMARK   59  A    between atoms: _157  and  _159
REMARK   60  A    between atoms: _159  and  _160
REMARK   61  A    between atoms: _159  and  _162
REMARK   62  A    between atoms: _162  and  _163
REMARK   63  A    between atoms: _168  and  _170
REMARK   64  A    between atoms: _170  and  _171
REMARK   65  A    between atoms: _170  and  _173
REMARK   66  A    between atoms: _173  and  _174
REMARK   67  A    between atoms: _179  and  _180
REMARK   68  A    between atoms: _182  and  _184
REMARK   69  A    between atoms: _184  and  _185
REMARK   70  A    between atoms: _184  and  _187
REMARK   71  A    between atoms: _187  and  _188
REMARK   72  A    between atoms: _193  and  _194
REMARK   73  A    between atoms: _196  and  _198
REMARK   74  A    between atoms: _198  and  _199
REMARK   75  A    between atoms: _198  and  _201
REMARK   76  A    between atoms: _201  and  _202
REMARK   77  A    between atoms: _202  and  _203
REMARK   78  A    between atoms: _205  and  _207
REMARK   79  A    between atoms: _207  and  _208
REMARK   80  A    between atoms: _207  and  _210
REMARK   81  A    between atoms: _210  and  _211
REMARK   82  A    between atoms: _221  and  _223
REMARK   83  A    between atoms: _223  and  _224
REMARK   84  A    between atoms: _223  and  _226
REMARK   85  A    between atoms: _226  and  _227
REMARK   86  A    between atoms: _230  and  _232
REMARK   87  A    between atoms: _232  and  _233
REMARK   88  A    between atoms: _232  and  _235
REMARK   89  A    between atoms: _235  and  _236
REMARK   90  A    between atoms: _236  and  _237
REMARK   91  A    between atoms: _240  and  _242
REMARK   92  A    between atoms: _242  and  _243
REMARK   93  A    between atoms: _242  and  _245
REMARK   94  A    between atoms: _245  and  _246
REMARK   95  A    between atoms: _251  and  _253
REMARK   96  A    between atoms: _253  and  _254
REMARK   97  A    between atoms: _256  and  _258
REMARK   98  A    between atoms: _258  and  _259
REMARK   99  A    between atoms: _262  and  _264
REMARK  100  A    between atoms: _264  and  _265
REMARK  101  A    between atoms: _268  and  _270
REMARK  102  A    between atoms: _270  and  _271
REMARK  103  A    between atoms: _270  and  _273
REMARK  104  A    between atoms: _273  and  _274
REMARK  105  A    between atoms: _284  and  _286
REMARK  106  A    between atoms: _286  and  _287
REMARK  107  A    between atoms: _286  and  _289
REMARK  108  A    between atoms: _289  and  _290
REMARK  109  A    between atoms: _292  and  _294
REMARK  110  A    between atoms: _294  and  _295
REMARK  111  A    between atoms: _294  and  _297
REMARK  112  A    between atoms: _297  and  _298
REMARK  113  A    between atoms: _303  and  _305
REMARK  114  A    between atoms: _305  and  _306
REMARK  115  A    between atoms: _305  and  _308
REMARK  116  A    between atoms: _308  and  _309
REMARK  117  A    between atoms: _315  and  _317
REMARK  118  A    between atoms: _317  and  _318
REMARK  119  A    between atoms: _317  and  _320
REMARK  120  A    between atoms: _320  and  _321
REMARK  121  A    between atoms: _321  and  _322
REMARK  122  A    between atoms: _325  and  _327
REMARK  123  A    between atoms: _327  and  _328
REMARK  124  A    between atoms: _327  and  _330
REMARK  125  A    between atoms: _330  and  _331
REMARK  126  A    between atoms: _341  and  _343
REMARK  127  A    between atoms: _343  and  _344
REMARK  128  A    between atoms: _347  and  _349
REMARK  129  A    between atoms: _349  and  _350
REMARK  130  A    between atoms: _349  and  _352
REMARK  131  A    between atoms: _352  and  _353
REMARK  132  A    between atoms: _353  and  _354
REMARK  133  A    between atoms: _357  and  _359
REMARK  134  A    between atoms: _359  and  _360
REMARK  135  A    between atoms: _359  and  _362
REMARK  136  A    between atoms: _362  and  _363
REMARK  137  A    between atoms: _363  and  _364
REMARK  138  A    between atoms: _364  and  _365
REMARK  139  A    between atoms: _365  and  _366
REMARK  140  A    between atoms: _370  and  _372
REMARK  141  A    between atoms: _372  and  _373
REMARK  142  A    between atoms: _372  and  _375
REMARK  143  A    between atoms: _375  and  _376
REMARK                            x       y       z     vdW  Elec       q    Type
REMARK                         _______ _______ _______ _____ _____    ______ ____
ROOT
ATOM      1  O   HOH     1      -1.442   6.875  17.496  0.00  0.00    +0.000 OA
ENDROOT
TORSDOF 0
REMARK  Name = ../refined-set-2016/1uz1/1uz1_pocket.pdb
REMARK  143 active torsions:
REMARK  status: ('A' for Active; 'I' for Inactive)
REMARK    1  A    between atoms: _1  and  _3
REMARK    2  A    between atoms: _3  and  _4
REMARK    3  A    between atoms: _7  and  _9
REMARK    4  A    between atoms: _9  and  _10
REMARK    5  A    between atoms: _9  and  _12
REMARK    6  A    between atoms: _12  and  _13
REMARK    7  A    between atoms: _16  and  _18
REMARK    8  A    between atoms: _18  and  _19
REMARK    9  A    between atoms: _22  and  _24
REMARK   10  A    between atoms: _24  and  _25
REMARK   11  A    between atoms: _24  and  _27
REMARK   12  A    between atoms: _27  and  _28
REMARK   13  A    between atoms: _28  and  _29
REMARK   14  A    between atoms: _34  and  _36
REMARK   15  A    between atoms: _36  and  _37
REMARK   16  A    between atoms: _36  and  _39
REMARK   17  A    between atoms: _39  and  _40
REMARK   18  A    between atoms: _40  and  _41
REMARK   19  A    between atoms: _41  and  _42
REMARK   20  A    between atoms: _51  and  _53
REMARK   21  A    between atoms: _53  and  _54
REMARK   22  A    between atoms: _53  and  _56
REMARK   23  A    between atoms: _56  and  _57
REMARK   24  A    between atoms: _60  and  _62
REMARK   25  A    between atoms: _62  and  _63
REMARK   26  A    between atoms: _62  and  _65
REMARK   27  A    between atoms: _65  and  _66
REMARK   28  A    between atoms: _71  and  _73
REMARK   29  A    between atoms: _73  and  _74
REMARK   30  A    between atoms: _73  and  _76
REMARK   31  A    between atoms: _76  and  _77
REMARK   32  A    between atoms: _87  and  _89
REMARK   33  A    between atoms: _89  and  _90
REMARK   34  A    between atoms: _89  and  _92
REMARK   35  A    between atoms: _92  and  _93
REMARK   36  A    between atoms: _98  and  _100
REMARK   37  A    between atoms: _100  and  _101
REMARK   38  A    between atoms: _100  and  _103
REMARK   39  A    between atoms: _103  and  _104
REMARK   40  A    between atoms: _104  and  _105
REMARK   41  A    between atoms: _108  and  _110
REMARK   42  A    between atoms: _110  and  _111
REMARK   43  A    between atoms: _110  and  _113
REMARK   44  A    between atoms: _116  and  _118
REMARK   45  A    between atoms: _118  and  _119
REMARK   46  A    between atoms: _118  and  _121
REMARK   47  A    between atoms: _121  and  _122
REMARK   48  A    between atoms: _127  and  _129
REMARK   49  A    between atoms: _129  and  _130
REMARK   50  A    between atoms: _129  and  _132
REMARK   51  A    between atoms: _135  and  _137
REMARK   52  A    between atoms: _137  and  _138
REMARK   53  A    between atoms: _137  and  _140
REMARK   54  A    between atoms: _140  and  _141
REMARK   55  A    between atoms: _146  and  _148
REMARK   56  A    between atoms: _148  and  _149
REMARK   57  A    between atoms: _148  and  _151
REMARK   58  A    between atoms: _151  and  _152
REMARK   59  A    between atoms: _157  and  _159
REMARK   60  A    between atoms: _159  and  _160
REMARK   61  A    between atoms: _159  and  _162
REMARK   62  A    between atoms: _162  and  _163
REMARK   63  A    between atoms: _168  and  _170
REMARK   64  A    between atoms: _170  and  _171
REMARK   65  A    between atoms: _170  and  _173
REMARK   66  A    between atoms: _173  and  _174
REMARK   67  A    between atoms: _179  and  _180
REMARK   68  A    between atoms: _182  and  _184
REMARK   69  A    between atoms: _184  and  _185
REMARK   70  A    between atoms: _184  and  _187
REMARK   71  A    between atoms: _187  and  _188
REMARK   72  A    between atoms: _193  and  _194
REMARK   73  A    between atoms: _196  and  _198
REMARK   74  A    between atoms: _198  and  _199
REMARK   75  A    between atoms: _198  and  _201
REMARK   76  A    between atoms: _201  and  _202
REMARK   77  A    between atoms: _202  and  _203
REMARK   78  A    between atoms: _205  and  _207
REMARK   79  A    between atoms: _207  and  _208
REMARK   80  A    between atoms: _207  and  _210
REMARK   81  A    between atoms: _210  and  _211
REMARK   82  A    between atoms: _221  and  _223
REMARK   83  A    between atoms: _223  and  _224
REMARK   84  A    between atoms: _223  and  _226
REMARK   85  A    between atoms: _226  and  _227
REMARK   86  A    between atoms: _230  and  _232
REMARK   87  A    between atoms: _232  and  _233
REMARK   88  A    between atoms: _232  and  _235
REMARK   89  A    between atoms: _235  and  _236
REMARK   90  A    between atoms: _236  and  _237
REMARK   91  A    between atoms: _240  and  _242
REMARK   92  A    between atoms: _242  and  _243
REMARK   93  A    between atoms: _242  and  _245
REMARK   94  A    between atoms: _245  and  _246
REMARK   95  A    between atoms: _251  and  _253
REMARK   96  A    between atoms: _253  and  _254
REMARK   97  A    between atoms: _256  and  _258
REMARK   98  A    between atoms: _258  and  _259
REMARK   99  A    between atoms: _262  and  _264
REMARK  100  A    between atoms: _264  and  _265
REMARK  101  A    between atoms: _268  and  _270
REMARK  102  A    between atoms: _270  and  _271
REMARK  103  A    between atoms: _270  and  _273
REMARK  104  A    between atoms: _273  and  _274
REMARK  105  A    between atoms: _284  and  _286
REMARK  106  A    between atoms: _286  and  _287
REMARK  107  A    between atoms: _286  and  _289
REMARK  108  A    between atoms: _289  and  _290
REMARK  109  A    between atoms: _292  and  _294
REMARK  110  A    between atoms: _294  and  _295
REMARK  111  A    between atoms: _294  and  _297
REMARK  112  A    between atoms: _297  and  _298
REMARK  113  A    between atoms: _303  and  _305
REMARK  114  A    between atoms: _305  and  _306
REMARK  115  A    between atoms: _305  and  _308
REMARK  116  A    between atoms: _308  and  _309
REMARK  117  A    between atoms: _315  and  _317
REMARK  118  A    between atoms: _317  and  _318
REMARK  119  A    between atoms: _317  and  _320
REMARK  120  A    between atoms: _320  and  _321
REMARK  121  A    between atoms: _321  and  _322
REMARK  122  A    between atoms: _325  and  _327
REMARK  123  A    between atoms: _327  and  _328
REMARK  124  A    between atoms: _327  and  _330
REMARK  125  A    between atoms: _330  and  _331
REMARK  126  A    between atoms: _341  and  _343
REMARK  127  A    between atoms: _343  and  _344
REMARK  128  A    between atoms: _347  and  _349
REMARK  129  A    between atoms: _349  and  _350
REMARK  130  A    between atoms: _349  and  _352
REMARK  131  A    between atoms: _352  and  _353
REMARK  132  A    between atoms: _353  and  _354
REMARK  133  A    between atoms: _357  and  _359
REMARK  134  A    between atoms: _359  and  _360
REMARK  135  A    between atoms: _359  and  _362
REMARK  136  A    between atoms: _362  and  _363
REMARK  137  A    between atoms: _363  and  _364
REMARK  138  A    between atoms: _364  and  _365
REMARK  139  A    between atoms: _365  and  _366
REMARK  140  A    between atoms: _370  and  _372
REMARK  141  A    between atoms: _372  and  _373
REMARK  142  A    between atoms: _372  and  _375
REMARK  143  A    between atoms: _375  and  _376
REMARK                            x       y       z     vdW  Elec       q    Type
REMARK                         _______ _______ _______ _____ _____    ______ ____
ROOT
ATOM      1  O   HOH     1      -2.771   9.972  16.630  0.00  0.00    +0.000 OA
ENDROOT
TORSDOF 0
REMARK  Name = ../refined-set-2016/1uz1/1uz1_pocket.pdb
REMARK  143 active torsions:
REMARK  status: ('A' for Active; 'I' for Inactive)
REMARK    1  A    between atoms: _1  and  _3
REMARK    2  A    between atoms: _3  and  _4
REMARK    3  A    between atoms: _7  and  _9
REMARK    4  A    between atoms: _9  and  _10
REMARK    5  A    between atoms: _9  and  _12
REMARK    6  A    between atoms: _12  and  _13
REMARK    7  A    between atoms: _16  and  _18
REMARK    8  A    between atoms: _18  and  _19
REMARK    9  A    between atoms: _22  and  _24
REMARK   10  A    between atoms: _24  and  _25
REMARK   11  A    between atoms: _24  and  _27
REMARK   12  A    between atoms: _27  and  _28
REMARK   13  A    between atoms: _28  and  _29
REMARK   14  A    between atoms: _34  and  _36
REMARK   15  A    between atoms: _36  and  _37
REMARK   16  A    between atoms: _36  and  _39
REMARK   17  A    between atoms: _39  and  _40
REMARK   18  A    between atoms: _40  and  _41
REMARK   19  A    between atoms: _41  and  _42
REMARK   20  A    between atoms: _51  and  _53
REMARK   21  A    between atoms: _53  and  _54
REMARK   22  A    between atoms: _53  and  _56
REMARK   23  A    between atoms: _56  and  _57
REMARK   24  A    between atoms: _60  and  _62
REMARK   25  A    between atoms: _62  and  _63
REMARK   26  A    between atoms: _62  and  _65
REMARK   27  A    between atoms: _65  and  _66
REMARK   28  A    between atoms: _71  and  _73
REMARK   29  A    between atoms: _73  and  _74
REMARK   30  A    between atoms: _73  and  _76
REMARK   31  A    between atoms: _76  and  _77
REMARK   32  A    between atoms: _87  and  _89
REMARK   33  A    between atoms: _89  and  _90
REMARK   34  A    between atoms: _89  and  _92
REMARK   35  A    between atoms: _92  and  _93
REMARK   36  A    between atoms: _98  and  _100
REMARK   37  A    between atoms: _100  and  _101
REMARK   38  A    between atoms: _100  and  _103
REMARK   39  A    between atoms: _103  and  _104
REMARK   40  A    between atoms: _104  and  _105
REMARK   41  A    between atoms: _108  and  _110
REMARK   42  A    between atoms: _110  and  _111
REMARK   43  A    between atoms: _110  and  _113
REMARK   44  A    between atoms: _116  and  _118
REMARK   45  A    between atoms: _118  and  _119
REMARK   46  A    between atoms: _118  and  _121
REMARK   47  A    between atoms: _121  and  _122
REMARK   48  A    between atoms: _127  and  _129
REMARK   49  A    between atoms: _129  and  _130
REMARK   50  A    between atoms: _129  and  _132
REMARK   51  A    between atoms: _135  and  _137
REMARK   52  A    between atoms: _137  and  _138
REMARK   53  A    between atoms: _137  and  _140
REMARK   54  A    between atoms: _140  and  _141
REMARK   55  A    between atoms: _146  and  _148
REMARK   56  A    between atoms: _148  and  _149
REMARK   57  A    between atoms: _148  and  _151
REMARK   58  A    between atoms: _151  and  _152
REMARK   59  A    between atoms: _157  and  _159
REMARK   60  A    between atoms: _159  and  _160
REMARK   61  A    between atoms: _159  and  _162
REMARK   62  A    between atoms: _162  and  _163
REMARK   63  A    between atoms: _168  and  _170
REMARK   64  A    between atoms: _170  and  _171
REMARK   65  A    between atoms: _170  and  _173
REMARK   66  A    between atoms: _173  and  _174
REMARK   67  A    between atoms: _179  and  _180
REMARK   68  A    between atoms: _182  and  _184
REMARK   69  A    between atoms: _184  and  _185
REMARK   70  A    between atoms: _184  and  _187
REMARK   71  A    between atoms: _187  and  _188
REMARK   72  A    between atoms: _193  and  _194
REMARK   73  A    between atoms: _196  and  _198
REMARK   74  A    between atoms: _198  and  _199
REMARK   75  A    between atoms: _198  and  _201
REMARK   76  A    between atoms: _201  and  _202
REMARK   77  A    between atoms: _202  and  _203
REMARK   78  A    between atoms: _205  and  _207
REMARK   79  A    between atoms: _207  and  _208
REMARK   80  A    between atoms: _207  and  _210
REMARK   81  A    between atoms: _210  and  _211
REMARK   82  A    between atoms: _221  and  _223
REMARK   83  A    between atoms: _223  and  _224
REMARK   84  A    between atoms: _223  and  _226
REMARK   85  A    between atoms: _226  and  _227
REMARK   86  A    between atoms: _230  and  _232
REMARK   87  A    between atoms: _232  and  _233
REMARK   88  A    between atoms: _232  and  _235
REMARK   89  A    between atoms: _235  and  _236
REMARK   90  A    between atoms: _236  and  _237
REMARK   91  A    between atoms: _240  and  _242
REMARK   92  A    between atoms: _242  and  _243
REMARK   93  A    between atoms: _242  and  _245
REMARK   94  A    between atoms: _245  and  _246
REMARK   95  A    between atoms: _251  and  _253
REMARK   96  A    between atoms: _253  and  _254
REMARK   97  A    between atoms: _256  and  _258
REMARK   98  A    between atoms: _258  and  _259
REMARK   99  A    between atoms: _262  and  _264
REMARK  100  A    between atoms: _264  and  _265
REMARK  101  A    between atoms: _268  and  _270
REMARK  102  A    between atoms: _270  and  _271
REMARK  103  A    between atoms: _270  and  _273
REMARK  104  A    between atoms: _273  and  _274
REMARK  105  A    between atoms: _284  and  _286
REMARK  106  A    between atoms: _286  and  _287
REMARK  107  A    between atoms: _286  and  _289
REMARK  108  A    between atoms: _289  and  _290
REMARK  109  A    between atoms: _292  and  _294
REMARK  110  A    between atoms: _294  and  _295
REMARK  111  A    between atoms: _294  and  _297
REMARK  112  A    between atoms: _297  and  _298
REMARK  113  A    between atoms: _303  and  _305
REMARK  114  A    between atoms: _305  and  _306
REMARK  115  A    between atoms: _305  and  _308
REMARK  116  A    between atoms: _308  and  _309
REMARK  117  A    between atoms: _315  and  _317
REMARK  118  A    between atoms: _317  and  _318
REMARK  119  A    between atoms: _317  and  _320
REMARK  120  A    between atoms: _320  and  _321
REMARK  121  A    between atoms: _321  and  _322
REMARK  122  A    between atoms: _325  and  _327
REMARK  123  A    between atoms: _327  and  _328
REMARK  124  A    between atoms: _327  and  _330
REMARK  125  A    between atoms: _330  and  _331
REMARK  126  A    between atoms: _341  and  _343
REMARK  127  A    between atoms: _343  and  _344
REMARK  128  A    between atoms: _347  and  _349
REMARK  129  A    between atoms: _349  and  _350
REMARK  130  A    between atoms: _349  and  _352
REMARK  131  A    between atoms: _352  and  _353
REMARK  132  A    between atoms: _353  and  _354
REMARK  133  A    between atoms: _357  and  _359
REMARK  134  A    between atoms: _359  and  _360
REMARK  135  A    between atoms: _359  and  _362
REMARK  136  A    between atoms: _362  and  _363
REMARK  137  A    between atoms: _363  and  _364
REMARK  138  A    between atoms: _364  and  _365
REMARK  139  A    between atoms: _365  and  _366
REMARK  140  A    between atoms: _370  and  _372
REMARK  141  A    between atoms: _372  and  _373
REMARK  142  A    between atoms: _372  and  _375
REMARK  143  A    between atoms: _375  and  _376
REMARK                            x       y       z     vdW  Elec       q    Type
REMARK                         _______ _______ _______ _____ _____    ______ ____
ROOT
ATOM      1  O   HOH     1      -8.913   6.048   9.739  0.00  0.00    +0.000 OA
ENDROOT
TORSDOF 0
REMARK  Name = ../refined-set-2016/1uz1/1uz1_pocket.pdb
REMARK  143 active torsions:
REMARK  status: ('A' for Active; 'I' for Inactive)
REMARK    1  A    between atoms: _1  and  _3
REMARK    2  A    between atoms: _3  and  _4
REMARK    3  A    between atoms: _7  and  _9
REMARK    4  A    between atoms: _9  and  _10
REMARK    5  A    between atoms: _9  and  _12
REMARK    6  A    between atoms: _12  and  _13
REMARK    7  A    between atoms: _16  and  _18
REMARK    8  A    between atoms: _18  and  _19
REMARK    9  A    between atoms: _22  and  _24
REMARK   10  A    between atoms: _24  and  _25
REMARK   11  A    between atoms: _24  and  _27
REMARK   12  A    between atoms: _27  and  _28
REMARK   13  A    between atoms: _28  and  _29
REMARK   14  A    between atoms: _34  and  _36
REMARK   15  A    between atoms: _36  and  _37
REMARK   16  A    between atoms: _36  and  _39
REMARK   17  A    between atoms: _39  and  _40
REMARK   18  A    between atoms: _40  and  _41
REMARK   19  A    between atoms: _41  and  _42
REMARK   20  A    between atoms: _51  and  _53
REMARK   21  A    between atoms: _53  and  _54
REMARK   22  A    between atoms: _53  and  _56
REMARK   23  A    between atoms: _56  and  _57
REMARK   24  A    between atoms: _60  and  _62
REMARK   25  A    between atoms: _62  and  _63
REMARK   26  A    between atoms: _62  and  _65
REMARK   27  A    between atoms: _65  and  _66
REMARK   28  A    between atoms: _71  and  _73
REMARK   29  A    between atoms: _73  and  _74
REMARK   30  A    between atoms: _73  and  _76
REMARK   31  A    between atoms: _76  and  _77
REMARK   32  A    between atoms: _87  and  _89
REMARK   33  A    between atoms: _89  and  _90
REMARK   34  A    between atoms: _89  and  _92
REMARK   35  A    between atoms: _92  and  _93
REMARK   36  A    between atoms: _98  and  _100
REMARK   37  A    between atoms: _100  and  _101
REMARK   38  A    between atoms: _100  and  _103
REMARK   39  A    between atoms: _103  and  _104
REMARK   40  A    between atoms: _104  and  _105
REMARK   41  A    between atoms: _108  and  _110
REMARK   42  A    between atoms: _110  and  _111
REMARK   43  A    between atoms: _110  and  _113
REMARK   44  A    between atoms: _116  and  _118
REMARK   45  A    between atoms: _118  and  _119
REMARK   46  A    between atoms: _118  and  _121
REMARK   47  A    between atoms: _121  and  _122
REMARK   48  A    between atoms: _127  and  _129
REMARK   49  A    between atoms: _129  and  _130
REMARK   50  A    between atoms: _129  and  _132
REMARK   51  A    between atoms: _135  and  _137
REMARK   52  A    between atoms: _137  and  _138
REMARK   53  A    between atoms: _137  and  _140
REMARK   54  A    between atoms: _140  and  _141
REMARK   55  A    between atoms: _146  and  _148
REMARK   56  A    between atoms: _148  and  _149
REMARK   57  A    between atoms: _148  and  _151
REMARK   58  A    between atoms: _151  and  _152
REMARK   59  A    between atoms: _157  and  _159
REMARK   60  A    between atoms: _159  and  _160
REMARK   61  A    between atoms: _159  and  _162
REMARK   62  A    between atoms: _162  and  _163
REMARK   63  A    between atoms: _168  and  _170
REMARK   64  A    between atoms: _170  and  _171
REMARK   65  A    between atoms: _170  and  _173
REMARK   66  A    between atoms: _173  and  _174
REMARK   67  A    between atoms: _179  and  _180
REMARK   68  A    between atoms: _182  and  _184
REMARK   69  A    between atoms: _184  and  _185
REMARK   70  A    between atoms: _184  and  _187
REMARK   71  A    between atoms: _187  and  _188
REMARK   72  A    between atoms: _193  and  _194
REMARK   73  A    between atoms: _196  and  _198
REMARK   74  A    between atoms: _198  and  _199
REMARK   75  A    between atoms: _198  and  _201
REMARK   76  A    between atoms: _201  and  _202
REMARK   77  A    between atoms: _202  and  _203
REMARK   78  A    between atoms: _205  and  _207
REMARK   79  A    between atoms: _207  and  _208
REMARK   80  A    between atoms: _207  and  _210
REMARK   81  A    between atoms: _210  and  _211
REMARK   82  A    between atoms: _221  and  _223
REMARK   83  A    between atoms: _223  and  _224
REMARK   84  A    between atoms: _223  and  _226
REMARK   85  A    between atoms: _226  and  _227
REMARK   86  A    between atoms: _230  and  _232
REMARK   87  A    between atoms: _232  and  _233
REMARK   88  A    between atoms: _232  and  _235
REMARK   89  A    between atoms: _235  and  _236
REMARK   90  A    between atoms: _236  and  _237
REMARK   91  A    between atoms: _240  and  _242
REMARK   92  A    between atoms: _242  and  _243
REMARK   93  A    between atoms: _242  and  _245
REMARK   94  A    between atoms: _245  and  _246
REMARK   95  A    between atoms: _251  and  _253
REMARK   96  A    between atoms: _253  and  _254
REMARK   97  A    between atoms: _256  and  _258
REMARK   98  A    between atoms: _258  and  _259
REMARK   99  A    between atoms: _262  and  _264
REMARK  100  A    between atoms: _264  and  _265
REMARK  101  A    between atoms: _268  and  _270
REMARK  102  A    between atoms: _270  and  _271
REMARK  103  A    between atoms: _270  and  _273
REMARK  104  A    between atoms: _273  and  _274
REMARK  105  A    between atoms: _284  and  _286
REMARK  106  A    between atoms: _286  and  _287
REMARK  107  A    between atoms: _286  and  _289
REMARK  108  A    between atoms: _289  and  _290
REMARK  109  A    between atoms: _292  and  _294
REMARK  110  A    between atoms: _294  and  _295
REMARK  111  A    between atoms: _294  and  _297
REMARK  112  A    between atoms: _297  and  _298
REMARK  113  A    between atoms: _303  and  _305
REMARK  114  A    between atoms: _305  and  _306
REMARK  115  A    between atoms: _305  and  _308
REMARK  116  A    between atoms: _308  and  _309
REMARK  117  A    between atoms: _315  and  _317
REMARK  118  A    between atoms: _317  and  _318
REMARK  119  A    between atoms: _317  and  _320
REMARK  120  A    between atoms: _320  and  _321
REMARK  121  A    between atoms: _321  and  _322
REMARK  122  A    between atoms: _325  and  _327
REMARK  123  A    between atoms: _327  and  _328
REMARK  124  A    between atoms: _327  and  _330
REMARK  125  A    between atoms: _330  and  _331
REMARK  126  A    between atoms: _341  and  _343
REMARK  127  A    between atoms: _343  and  _344
REMARK  128  A    between atoms: _347  and  _349
REMARK  129  A    between atoms: _349  and  _350
REMARK  130  A    between atoms: _349  and  _352
REMARK  131  A    between atoms: _352  and  _353
REMARK  132  A    between atoms: _353  and  _354
REMARK  133  A    between atoms: _357  and  _359
REMARK  134  A    between atoms: _359  and  _360
REMARK  135  A    between atoms: _359  and  _362
REMARK  136  A    between atoms: _362  and  _363
REMARK  137  A    between atoms: _363  and  _364
REMARK  138  A    between atoms: _364  and  _365
REMARK  139  A    between atoms: _365  and  _366
REMARK  140  A    between atoms: _370  and  _372
REMARK  141  A    between atoms: _372  and  _373
REMARK  142  A    between atoms: _372  and  _375
REMARK  143  A    between atoms: _375  and  _376
REMARK                            x       y       z     vdW  Elec       q    Type
REMARK                         _______ _______ _______ _____ _____    ______ ____
ROOT
ATOM      1  O   HOH     1      -2.217   1.456  11.179  0.00  0.00    +0.000 OA
ENDROOT
TORSDOF 0
REMARK  Name = ../refined-set-2016/1uz1/1uz1_pocket.pdb
REMARK  143 active torsions:
REMARK  status: ('A' for Active; 'I' for Inactive)
REMARK    1  A    between atoms: _1  and  _3
REMARK    2  A    between atoms: _3  and  _4
REMARK    3  A    between atoms: _7  and  _9
REMARK    4  A    between atoms: _9  and  _10
REMARK    5  A    between atoms: _9  and  _12
REMARK    6  A    between atoms: _12  and  _13
REMARK    7  A    between atoms: _16  and  _18
REMARK    8  A    between atoms: _18  and  _19
REMARK    9  A    between atoms: _22  and  _24
REMARK   10  A    between atoms: _24  and  _25
REMARK   11  A    between atoms: _24  and  _27
REMARK   12  A    between atoms: _27  and  _28
REMARK   13  A    between atoms: _28  and  _29
REMARK   14  A    between atoms: _34  and  _36
REMARK   15  A    between atoms: _36  and  _37
REMARK   16  A    between atoms: _36  and  _39
REMARK   17  A    between atoms: _39  and  _40
REMARK   18  A    between atoms: _40  and  _41
REMARK   19  A    between atoms: _41  and  _42
REMARK   20  A    between atoms: _51  and  _53
REMARK   21  A    between atoms: _53  and  _54
REMARK   22  A    between atoms: _53  and  _56
REMARK   23  A    between atoms: _56  and  _57
REMARK   24  A    between atoms: _60  and  _62
REMARK   25  A    between atoms: _62  and  _63
REMARK   26  A    between atoms: _62  and  _65
REMARK   27  A    between atoms: _65  and  _66
REMARK   28  A    between atoms: _71  and  _73
REMARK   29  A    between atoms: _73  and  _74
REMARK   30  A    between atoms: _73  and  _76
REMARK   31  A    between atoms: _76  and  _77
REMARK   32  A    between atoms: _87  and  _89
REMARK   33  A    between atoms: _89  and  _90
REMARK   34  A    between atoms: _89  and  _92
REMARK   35  A    between atoms: _92  and  _93
REMARK   36  A    between atoms: _98  and  _100
REMARK   37  A    between atoms: _100  and  _101
REMARK   38  A    between atoms: _100  and  _103
REMARK   39  A    between atoms: _103  and  _104
REMARK   40  A    between atoms: _104  and  _105
REMARK   41  A    between atoms: _108  and  _110
REMARK   42  A    between atoms: _110  and  _111
REMARK   43  A    between atoms: _110  and  _113
REMARK   44  A    between atoms: _116  and  _118
REMARK   45  A    between atoms: _118  and  _119
REMARK   46  A    between atoms: _118  and  _121
REMARK   47  A    between atoms: _121  and  _122
REMARK   48  A    between atoms: _127  and  _129
REMARK   49  A    between atoms: _129  and  _130
REMARK   50  A    between atoms: _129  and  _132
REMARK   51  A    between atoms: _135  and  _137
REMARK   52  A    between atoms: _137  and  _138
REMARK   53  A    between atoms: _137  and  _140
REMARK   54  A    between atoms: _140  and  _141
REMARK   55  A    between atoms: _146  and  _148
REMARK   56  A    between atoms: _148  and  _149
REMARK   57  A    between atoms: _148  and  _151
REMARK   58  A    between atoms: _151  and  _152
REMARK   59  A    between atoms: _157  and  _159
REMARK   60  A    between atoms: _159  and  _160
REMARK   61  A    between atoms: _159  and  _162
REMARK   62  A    between atoms: _162  and  _163
REMARK   63  A    between atoms: _168  and  _170
REMARK   64  A    between atoms: _170  and  _171
REMARK   65  A    between atoms: _170  and  _173
REMARK   66  A    between atoms: _173  and  _174
REMARK   67  A    between atoms: _179  and  _180
REMARK   68  A    between atoms: _182  and  _184
REMARK   69  A    between atoms: _184  and  _185
REMARK   70  A    between atoms: _184  and  _187
REMARK   71  A    between atoms: _187  and  _188
REMARK   72  A    between atoms: _193  and  _194
REMARK   73  A    between atoms: _196  and  _198
REMARK   74  A    between atoms: _198  and  _199
REMARK   75  A    between atoms: _198  and  _201
REMARK   76  A    between atoms: _201  and  _202
REMARK   77  A    between atoms: _202  and  _203
REMARK   78  A    between atoms: _205  and  _207
REMARK   79  A    between atoms: _207  and  _208
REMARK   80  A    between atoms: _207  and  _210
REMARK   81  A    between atoms: _210  and  _211
REMARK   82  A    between atoms: _221  and  _223
REMARK   83  A    between atoms: _223  and  _224
REMARK   84  A    between atoms: _223  and  _226
REMARK   85  A    between atoms: _226  and  _227
REMARK   86  A    between atoms: _230  and  _232
REMARK   87  A    between atoms: _232  and  _233
REMARK   88  A    between atoms: _232  and  _235
REMARK   89  A    between atoms: _235  and  _236
REMARK   90  A    between atoms: _236  and  _237
REMARK   91  A    between atoms: _240  and  _242
REMARK   92  A    between atoms: _242  and  _243
REMARK   93  A    between atoms: _242  and  _245
REMARK   94  A    between atoms: _245  and  _246
REMARK   95  A    between atoms: _251  and  _253
REMARK   96  A    between atoms: _253  and  _254
REMARK   97  A    between atoms: _256  and  _258
REMARK   98  A    between atoms: _258  and  _259
REMARK   99  A    between atoms: _262  and  _264
REMARK  100  A    between atoms: _264  and  _265
REMARK  101  A    between atoms: _268  and  _270
REMARK  102  A    between atoms: _270  and  _271
REMARK  103  A    between atoms: _270  and  _273
REMARK  104  A    between atoms: _273  and  _274
REMARK  105  A    between atoms: _284  and  _286
REMARK  106  A    between atoms: _286  and  _287
REMARK  107  A    between atoms: _286  and  _289
REMARK  108  A    between atoms: _289  and  _290
REMARK  109  A    between atoms: _292  and  _294
REMARK  110  A    between atoms: _294  and  _295
REMARK  111  A    between atoms: _294  and  _297
REMARK  112  A    between atoms: _297  and  _298
REMARK  113  A    between atoms: _303  and  _305
REMARK  114  A    between atoms: _305  and  _306
REMARK  115  A    between atoms: _305  and  _308
REMARK  116  A    between atoms: _308  and  _309
REMARK  117  A    between atoms: _315  and  _317
REMARK  118  A    between atoms: _317  and  _318
REMARK  119  A    between atoms: _317  and  _320
REMARK  120  A    between atoms: _320  and  _321
REMARK  121  A    between atoms: _321  and  _322
REMARK  122  A    between atoms: _325  and  _327
REMARK  123  A    between atoms: _327  and  _328
REMARK  124  A    between atoms: _327  and  _330
REMARK  125  A    between atoms: _330  and  _331
REMARK  126  A    between atoms: _341  and  _343
REMARK  127  A    between atoms: _343  and  _344
REMARK  128  A    between atoms: _347  and  _349
REMARK  129  A    between atoms: _349  and  _350
REMARK  130  A    between atoms: _349  and  _352
REMARK  131  A    between atoms: _352  and  _353
REMARK  132  A    between atoms: _353  and  _354
REMARK  133  A    between atoms: _357  and  _359
REMARK  134  A    between atoms: _359  and  _360
REMARK  135  A    between atoms: _359  and  _362
REMARK  136  A    between atoms: _362  and  _363
REMARK  137  A    between atoms: _363  and  _364
REMARK  138  A    between atoms: _364  and  _365
REMARK  139  A    between atoms: _365  and  _366
REMARK  140  A    between atoms: _370  and  _372
REMARK  141  A    between atoms: _372  and  _373
REMARK  142  A    between atoms: _372  and  _375
REMARK  143  A    between atoms: _375  and  _376
REMARK                            x       y       z     vdW  Elec       q    Type
REMARK                         _______ _______ _______ _____ _____    ______ ____
ROOT
ATOM      1  O   HOH     1      -9.668   7.239  11.982  0.00  0.00    +0.000 OA
ENDROOT
TORSDOF 0
REMARK  Name = ../refined-set-2016/1uz1/1uz1_pocket.pdb
REMARK  143 active torsions:
REMARK  status: ('A' for Active; 'I' for Inactive)
REMARK    1  A    between atoms: _1  and  _3
REMARK    2  A    between atoms: _3  and  _4
REMARK    3  A    between atoms: _7  and  _9
REMARK    4  A    between atoms: _9  and  _10
REMARK    5  A    between atoms: _9  and  _12
REMARK    6  A    between atoms: _12  and  _13
REMARK    7  A    between atoms: _16  and  _18
REMARK    8  A    between atoms: _18  and  _19
REMARK    9  A    between atoms: _22  and  _24
REMARK   10  A    between atoms: _24  and  _25
REMARK   11  A    between atoms: _24  and  _27
REMARK   12  A    between atoms: _27  and  _28
REMARK   13  A    between atoms: _28  and  _29
REMARK   14  A    between atoms: _34  and  _36
REMARK   15  A    between atoms: _36  and  _37
REMARK   16  A    between atoms: _36  and  _39
REMARK   17  A    between atoms: _39  and  _40
REMARK   18  A    between atoms: _40  and  _41
REMARK   19  A    between atoms: _41  and  _42
REMARK   20  A    between atoms: _51  and  _53
REMARK   21  A    between atoms: _53  and  _54
REMARK   22  A    between atoms: _53  and  _56
REMARK   23  A    between atoms: _56  and  _57
REMARK   24  A    between atoms: _60  and  _62
REMARK   25  A    between atoms: _62  and  _63
REMARK   26  A    between atoms: _62  and  _65
REMARK   27  A    between atoms: _65  and  _66
REMARK   28  A    between atoms: _71  and  _73
REMARK   29  A    between atoms: _73  and  _74
REMARK   30  A    between atoms: _73  and  _76
REMARK   31  A    between atoms: _76  and  _77
REMARK   32  A    between atoms: _87  and  _89
REMARK   33  A    between atoms: _89  and  _90
REMARK   34  A    between atoms: _89  and  _92
REMARK   35  A    between atoms: _92  and  _93
REMARK   36  A    between atoms: _98  and  _100
REMARK   37  A    between atoms: _100  and  _101
REMARK   38  A    between atoms: _100  and  _103
REMARK   39  A    between atoms: _103  and  _104
REMARK   40  A    between atoms: _104  and  _105
REMARK   41  A    between atoms: _108  and  _110
REMARK   42  A    between atoms: _110  and  _111
REMARK   43  A    between atoms: _110  and  _113
REMARK   44  A    between atoms: _116  and  _118
REMARK   45  A    between atoms: _118  and  _119
REMARK   46  A    between atoms: _118  and  _121
REMARK   47  A    between atoms: _121  and  _122
REMARK   48  A    between atoms: _127  and  _129
REMARK   49  A    between atoms: _129  and  _130
REMARK   50  A    between atoms: _129  and  _132
REMARK   51  A    between atoms: _135  and  _137
REMARK   52  A    between atoms: _137  and  _138
REMARK   53  A    between atoms: _137  and  _140
REMARK   54  A    between atoms: _140  and  _141
REMARK   55  A    between atoms: _146  and  _148
REMARK   56  A    between atoms: _148  and  _149
REMARK   57  A    between atoms: _148  and  _151
REMARK   58  A    between atoms: _151  and  _152
REMARK   59  A    between atoms: _157  and  _159
REMARK   60  A    between atoms: _159  and  _160
REMARK   61  A    between atoms: _159  and  _162
REMARK   62  A    between atoms: _162  and  _163
REMARK   63  A    between atoms: _168  and  _170
REMARK   64  A    between atoms: _170  and  _171
REMARK   65  A    between atoms: _170  and  _173
REMARK   66  A    between atoms: _173  and  _174
REMARK   67  A    between atoms: _179  and  _180
REMARK   68  A    between atoms: _182  and  _184
REMARK   69  A    between atoms: _184  and  _185
REMARK   70  A    between atoms: _184  and  _187
REMARK   71  A    between atoms: _187  and  _188
REMARK   72  A    between atoms: _193  and  _194
REMARK   73  A    between atoms: _196  and  _198
REMARK   74  A    between atoms: _198  and  _199
REMARK   75  A    between atoms: _198  and  _201
REMARK   76  A    between atoms: _201  and  _202
REMARK   77  A    between atoms: _202  and  _203
REMARK   78  A    between atoms: _205  and  _207
REMARK   79  A    between atoms: _207  and  _208
REMARK   80  A    between atoms: _207  and  _210
REMARK   81  A    between atoms: _210  and  _211
REMARK   82  A    between atoms: _221  and  _223
REMARK   83  A    between atoms: _223  and  _224
REMARK   84  A    between atoms: _223  and  _226
REMARK   85  A    between atoms: _226  and  _227
REMARK   86  A    between atoms: _230  and  _232
REMARK   87  A    between atoms: _232  and  _233
REMARK   88  A    between atoms: _232  and  _235
REMARK   89  A    between atoms: _235  and  _236
REMARK   90  A    between atoms: _236  and  _237
REMARK   91  A    between atoms: _240  and  _242
REMARK   92  A    between atoms: _242  and  _243
REMARK   93  A    between atoms: _242  and  _245
REMARK   94  A    between atoms: _245  and  _246
REMARK   95  A    between atoms: _251  and  _253
REMARK   96  A    between atoms: _253  and  _254
REMARK   97  A    between atoms: _256  and  _258
REMARK   98  A    between atoms: _258  and  _259
REMARK   99  A    between atoms: _262  and  _264
REMARK  100  A    between atoms: _264  and  _265
REMARK  101  A    between atoms: _268  and  _270
REMARK  102  A    between atoms: _270  and  _271
REMARK  103  A    between atoms: _270  and  _273
REMARK  104  A    between atoms: _273  and  _274
REMARK  105  A    between atoms: _284  and  _286
REMARK  106  A    between atoms: _286  and  _287
REMARK  107  A    between atoms: _286  and  _289
REMARK  108  A    between atoms: _289  and  _290
REMARK  109  A    between atoms: _292  and  _294
REMARK  110  A    between atoms: _294  and  _295
REMARK  111  A    between atoms: _294  and  _297
REMARK  112  A    between atoms: _297  and  _298
REMARK  113  A    between atoms: _303  and  _305
REMARK  114  A    between atoms: _305  and  _306
REMARK  115  A    between atoms: _305  and  _308
REMARK  116  A    between atoms: _308  and  _309
REMARK  117  A    between atoms: _315  and  _317
REMARK  118  A    between atoms: _317  and  _318
REMARK  119  A    between atoms: _317  and  _320
REMARK  120  A    between atoms: _320  and  _321
REMARK  121  A    between atoms: _321  and  _322
REMARK  122  A    between atoms: _325  and  _327
REMARK  123  A    between atoms: _327  and  _328
REMARK  124  A    between atoms: _327  and  _330
REMARK  125  A    between atoms: _330  and  _331
REMARK  126  A    between atoms: _341  and  _343
REMARK  127  A    between atoms: _343  and  _344
REMARK  128  A    between atoms: _347  and  _349
REMARK  129  A    between atoms: _349  and  _350
REMARK  130  A    between atoms: _349  and  _352
REMARK  131  A    between atoms: _352  and  _353
REMARK  132  A    between atoms: _353  and  _354
REMARK  133  A    between atoms: _357  and  _359
REMARK  134  A    between atoms: _359  and  _360
REMARK  135  A    between atoms: _359  and  _362
REMARK  136  A    between atoms: _362  and  _363
REMARK  137  A    between atoms: _363  and  _364
REMARK  138  A    between atoms: _364  and  _365
REMARK  139  A    between atoms: _365  and  _366
REMARK  140  A    between atoms: _370  and  _372
REMARK  141  A    between atoms: _372  and  _373
REMARK  142  A    between atoms: _372  and  _375
REMARK  143  A    between atoms: _375  and  _376
REMARK                            x       y       z     vdW  Elec       q    Type
REMARK                         _______ _______ _______ _____ _____    ______ ____
ROOT
ATOM      1  O   HOH     1      -3.796  10.473   4.218  0.00  0.00    +0.000 OA
ENDROOT
TORSDOF 0
REMARK  Name = ../refined-set-2016/1uz1/1uz1_pocket.pdb
REMARK  143 active torsions:
REMARK  status: ('A' for Active; 'I' for Inactive)
REMARK    1  A    between atoms: _1  and  _3
REMARK    2  A    between atoms: _3  and  _4
REMARK    3  A    between atoms: _7  and  _9
REMARK    4  A    between atoms: _9  and  _10
REMARK    5  A    between atoms: _9  and  _12
REMARK    6  A    between atoms: _12  and  _13
REMARK    7  A    between atoms: _16  and  _18
REMARK    8  A    between atoms: _18  and  _19
REMARK    9  A    between atoms: _22  and  _24
REMARK   10  A    between atoms: _24  and  _25
REMARK   11  A    between atoms: _24  and  _27
REMARK   12  A    between atoms: _27  and  _28
REMARK   13  A    between atoms: _28  and  _29
REMARK   14  A    between atoms: _34  and  _36
REMARK   15  A    between atoms: _36  and  _37
REMARK   16  A    between atoms: _36  and  _39
REMARK   17  A    between atoms: _39  and  _40
REMARK   18  A    between atoms: _40  and  _41
REMARK   19  A    between atoms: _41  and  _42
REMARK   20  A    between atoms: _51  and  _53
REMARK   21  A    between atoms: _53  and  _54
REMARK   22  A    between atoms: _53  and  _56
REMARK   23  A    between atoms: _56  and  _57
REMARK   24  A    between atoms: _60  and  _62
REMARK   25  A    between atoms: _62  and  _63
REMARK   26  A    between atoms: _62  and  _65
REMARK   27  A    between atoms: _65  and  _66
REMARK   28  A    between atoms: _71  and  _73
REMARK   29  A    between atoms: _73  and  _74
REMARK   30  A    between atoms: _73  and  _76
REMARK   31  A    between atoms: _76  and  _77
REMARK   32  A    between atoms: _87  and  _89
REMARK   33  A    between atoms: _89  and  _90
REMARK   34  A    between atoms: _89  and  _92
REMARK   35  A    between atoms: _92  and  _93
REMARK   36  A    between atoms: _98  and  _100
REMARK   37  A    between atoms: _100  and  _101
REMARK   38  A    between atoms: _100  and  _103
REMARK   39  A    between atoms: _103  and  _104
REMARK   40  A    between atoms: _104  and  _105
REMARK   41  A    between atoms: _108  and  _110
REMARK   42  A    between atoms: _110  and  _111
REMARK   43  A    between atoms: _110  and  _113
REMARK   44  A    between atoms: _116  and  _118
REMARK   45  A    between atoms: _118  and  _119
REMARK   46  A    between atoms: _118  and  _121
REMARK   47  A    between atoms: _121  and  _122
REMARK   48  A    between atoms: _127  and  _129
REMARK   49  A    between atoms: _129  and  _130
REMARK   50  A    between atoms: _129  and  _132
REMARK   51  A    between atoms: _135  and  _137
REMARK   52  A    between atoms: _137  and  _138
REMARK   53  A    between atoms: _137  and  _140
REMARK   54  A    between atoms: _140  and  _141
REMARK   55  A    between atoms: _146  and  _148
REMARK   56  A    between atoms: _148  and  _149
REMARK   57  A    between atoms: _148  and  _151
REMARK   58  A    between atoms: _151  and  _152
REMARK   59  A    between atoms: _157  and  _159
REMARK   60  A    between atoms: _159  and  _160
REMARK   61  A    between atoms: _159  and  _162
REMARK   62  A    between atoms: _162  and  _163
REMARK   63  A    between atoms: _168  and  _170
REMARK   64  A    between atoms: _170  and  _171
REMARK   65  A    between atoms: _170  and  _173
REMARK   66  A    between atoms: _173  and  _174
REMARK   67  A    between atoms: _179  and  _180
REMARK   68  A    between atoms: _182  and  _184
REMARK   69  A    between atoms: _184  and  _185
REMARK   70  A    between atoms: _184  and  _187
REMARK   71  A    between atoms: _187  and  _188
REMARK   72  A    between atoms: _193  and  _194
REMARK   73  A    between atoms: _196  and  _198
REMARK   74  A    between atoms: _198  and  _199
REMARK   75  A    between atoms: _198  and  _201
REMARK   76  A    between atoms: _201  and  _202
REMARK   77  A    between atoms: _202  and  _203
REMARK   78  A    between atoms: _205  and  _207
REMARK   79  A    between atoms: _207  and  _208
REMARK   80  A    between atoms: _207  and  _210
REMARK   81  A    between atoms: _210  and  _211
REMARK   82  A    between atoms: _221  and  _223
REMARK   83  A    between atoms: _223  and  _224
REMARK   84  A    between atoms: _223  and  _226
REMARK   85  A    between atoms: _226  and  _227
REMARK   86  A    between atoms: _230  and  _232
REMARK   87  A    between atoms: _232  and  _233
REMARK   88  A    between atoms: _232  and  _235
REMARK   89  A    between atoms: _235  and  _236
REMARK   90  A    between atoms: _236  and  _237
REMARK   91  A    between atoms: _240  and  _242
REMARK   92  A    between atoms: _242  and  _243
REMARK   93  A    between atoms: _242  and  _245
REMARK   94  A    between atoms: _245  and  _246
REMARK   95  A    between atoms: _251  and  _253
REMARK   96  A    between atoms: _253  and  _254
REMARK   97  A    between atoms: _256  and  _258
REMARK   98  A    between atoms: _258  and  _259
REMARK   99  A    between atoms: _262  and  _264
REMARK  100  A    between atoms: _264  and  _265
REMARK  101  A    between atoms: _268  and  _270
REMARK  102  A    between atoms: _270  and  _271
REMARK  103  A    between atoms: _270  and  _273
REMARK  104  A    between atoms: _273  and  _274
REMARK  105  A    between atoms: _284  and  _286
REMARK  106  A    between atoms: _286  and  _287
REMARK  107  A    between atoms: _286  and  _289
REMARK  108  A    between atoms: _289  and  _290
REMARK  109  A    between atoms: _292  and  _294
REMARK  110  A    between atoms: _294  and  _295
REMARK  111  A    between atoms: _294  and  _297
REMARK  112  A    between atoms: _297  and  _298
REMARK  113  A    between atoms: _303  and  _305
REMARK  114  A    between atoms: _305  and  _306
REMARK  115  A    between atoms: _305  and  _308
REMARK  116  A    between atoms: _308  and  _309
REMARK  117  A    between atoms: _315  and  _317
REMARK  118  A    between atoms: _317  and  _318
REMARK  119  A    between atoms: _317  and  _320
REMARK  120  A    between atoms: _320  and  _321
REMARK  121  A    between atoms: _321  and  _322
REMARK  122  A    between atoms: _325  and  _327
REMARK  123  A    between atoms: _327  and  _328
REMARK  124  A    between atoms: _327  and  _330
REMARK  125  A    between atoms: _330  and  _331
REMARK  126  A    between atoms: _341  and  _343
REMARK  127  A    between atoms: _343  and  _344
REMARK  128  A    between atoms: _347  and  _349
REMARK  129  A    between atoms: _349  and  _350
REMARK  130  A    between atoms: _349  and  _352
REMARK  131  A    between atoms: _352  and  _353
REMARK  132  A    between atoms: _353  and  _354
REMARK  133  A    between atoms: _357  and  _359
REMARK  134  A    between atoms: _359  and  _360
REMARK  135  A    between atoms: _359  and  _362
REMARK  136  A    between atoms: _362  and  _363
REMARK  137  A    between atoms: _363  and  _364
REMARK  138  A    between atoms: _364  and  _365
REMARK  139  A    between atoms: _365  and  _366
REMARK  140  A    between atoms: _370  and  _372
REMARK  141  A    between atoms: _372  and  _373
REMARK  142  A    between atoms: _372  and  _375
REMARK  143  A    between atoms: _375  and  _376
REMARK                            x       y       z     vdW  Elec       q    Type
REMARK                         _______ _______ _______ _____ _____    ______ ____
ROOT
ATOM      1  O   HOH     1      -0.508   4.760   7.125  0.00  0.00    +0.000 OA
ENDROOT
TORSDOF 0
REMARK  Name = ../refined-set-2016/1uz1/1uz1_pocket.pdb
REMARK  143 active torsions:
REMARK  status: ('A' for Active; 'I' for Inactive)
REMARK    1  A    between atoms: _1  and  _3
REMARK    2  A    between atoms: _3  and  _4
REMARK    3  A    between atoms: _7  and  _9
REMARK    4  A    between atoms: _9  and  _10
REMARK    5  A    between atoms: _9  and  _12
REMARK    6  A    between atoms: _12  and  _13
REMARK    7  A    between atoms: _16  and  _18
REMARK    8  A    between atoms: _18  and  _19
REMARK    9  A    between atoms: _22  and  _24
REMARK   10  A    between atoms: _24  and  _25
REMARK   11  A    between atoms: _24  and  _27
REMARK   12  A    between atoms: _27  and  _28
REMARK   13  A    between atoms: _28  and  _29
REMARK   14  A    between atoms: _34  and  _36
REMARK   15  A    between atoms: _36  and  _37
REMARK   16  A    between atoms: _36  and  _39
REMARK   17  A    between atoms: _39  and  _40
REMARK   18  A    between atoms: _40  and  _41
REMARK   19  A    between atoms: _41  and  _42
REMARK   20  A    between atoms: _51  and  _53
REMARK   21  A    between atoms: _53  and  _54
REMARK   22  A    between atoms: _53  and  _56
REMARK   23  A    between atoms: _56  and  _57
REMARK   24  A    between atoms: _60  and  _62
REMARK   25  A    between atoms: _62  and  _63
REMARK   26  A    between atoms: _62  and  _65
REMARK   27  A    between atoms: _65  and  _66
REMARK   28  A    between atoms: _71  and  _73
REMARK   29  A    between atoms: _73  and  _74
REMARK   30  A    between atoms: _73  and  _76
REMARK   31  A    between atoms: _76  and  _77
REMARK   32  A    between atoms: _87  and  _89
REMARK   33  A    between atoms: _89  and  _90
REMARK   34  A    between atoms: _89  and  _92
REMARK   35  A    between atoms: _92  and  _93
REMARK   36  A    between atoms: _98  and  _100
REMARK   37  A    between atoms: _100  and  _101
REMARK   38  A    between atoms: _100  and  _103
REMARK   39  A    between atoms: _103  and  _104
REMARK   40  A    between atoms: _104  and  _105
REMARK   41  A    between atoms: _108  and  _110
REMARK   42  A    between atoms: _110  and  _111
REMARK   43  A    between atoms: _110  and  _113
REMARK   44  A    between atoms: _116  and  _118
REMARK   45  A    between atoms: _118  and  _119
REMARK   46  A    between atoms: _118  and  _121
REMARK   47  A    between atoms: _121  and  _122
REMARK   48  A    between atoms: _127  and  _129
REMARK   49  A    between atoms: _129  and  _130
REMARK   50  A    between atoms: _129  and  _132
REMARK   51  A    between atoms: _135  and  _137
REMARK   52  A    between atoms: _137  and  _138
REMARK   53  A    between atoms: _137  and  _140
REMARK   54  A    between atoms: _140  and  _141
REMARK   55  A    between atoms: _146  and  _148
REMARK   56  A    between atoms: _148  and  _149
REMARK   57  A    between atoms: _148  and  _151
REMARK   58  A    between atoms: _151  and  _152
REMARK   59  A    between atoms: _157  and  _159
REMARK   60  A    between atoms: _159  and  _160
REMARK   61  A    between atoms: _159  and  _162
REMARK   62  A    between atoms: _162  and  _163
REMARK   63  A    between atoms: _168  and  _170
REMARK   64  A    between atoms: _170  and  _171
REMARK   65  A    between atoms: _170  and  _173
REMARK   66  A    between atoms: _173  and  _174
REMARK   67  A    between atoms: _179  and  _180
REMARK   68  A    between atoms: _182  and  _184
REMARK   69  A    between atoms: _184  and  _185
REMARK   70  A    between atoms: _184  and  _187
REMARK   71  A    between atoms: _187  and  _188
REMARK   72  A    between atoms: _193  and  _194
REMARK   73  A    between atoms: _196  and  _198
REMARK   74  A    between atoms: _198  and  _199
REMARK   75  A    between atoms: _198  and  _201
REMARK   76  A    between atoms: _201  and  _202
REMARK   77  A    between atoms: _202  and  _203
REMARK   78  A    between atoms: _205  and  _207
REMARK   79  A    between atoms: _207  and  _208
REMARK   80  A    between atoms: _207  and  _210
REMARK   81  A    between atoms: _210  and  _211
REMARK   82  A    between atoms: _221  and  _223
REMARK   83  A    between atoms: _223  and  _224
REMARK   84  A    between atoms: _223  and  _226
REMARK   85  A    between atoms: _226  and  _227
REMARK   86  A    between atoms: _230  and  _232
REMARK   87  A    between atoms: _232  and  _233
REMARK   88  A    between atoms: _232  and  _235
REMARK   89  A    between atoms: _235  and  _236
REMARK   90  A    between atoms: _236  and  _237
REMARK   91  A    between atoms: _240  and  _242
REMARK   92  A    between atoms: _242  and  _243
REMARK   93  A    between atoms: _242  and  _245
REMARK   94  A    between atoms: _245  and  _246
REMARK   95  A    between atoms: _251  and  _253
REMARK   96  A    between atoms: _253  and  _254
REMARK   97  A    between atoms: _256  and  _258
REMARK   98  A    between atoms: _258  and  _259
REMARK   99  A    between atoms: _262  and  _264
REMARK  100  A    between atoms: _264  and  _265
REMARK  101  A    between atoms: _268  and  _270
REMARK  102  A    between atoms: _270  and  _271
REMARK  103  A    between atoms: _270  and  _273
REMARK  104  A    between atoms: _273  and  _274
REMARK  105  A    between atoms: _284  and  _286
REMARK  106  A    between atoms: _286  and  _287
REMARK  107  A    between atoms: _286  and  _289
REMARK  108  A    between atoms: _289  and  _290
REMARK  109  A    between atoms: _292  and  _294
REMARK  110  A    between atoms: _294  and  _295
REMARK  111  A    between atoms: _294  and  _297
REMARK  112  A    between atoms: _297  and  _298
REMARK  113  A    between atoms: _303  and  _305
REMARK  114  A    between atoms: _305  and  _306
REMARK  115  A    between atoms: _305  and  _308
REMARK  116  A    between atoms: _308  and  _309
REMARK  117  A    between atoms: _315  and  _317
REMARK  118  A    between atoms: _317  and  _318
REMARK  119  A    between atoms: _317  and  _320
REMARK  120  A    between atoms: _320  and  _321
REMARK  121  A    between atoms: _321  and  _322
REMARK  122  A    between atoms: _325  and  _327
REMARK  123  A    between atoms: _327  and  _328
REMARK  124  A    between atoms: _327  and  _330
REMARK  125  A    between atoms: _330  and  _331
REMARK  126  A    between atoms: _341  and  _343
REMARK  127  A    between atoms: _343  and  _344
REMARK  128  A    between atoms: _347  and  _349
REMARK  129  A    between atoms: _349  and  _350
REMARK  130  A    between atoms: _349  and  _352
REMARK  131  A    between atoms: _352  and  _353
REMARK  132  A    between atoms: _353  and  _354
REMARK  133  A    between atoms: _357  and  _359
REMARK  134  A    between atoms: _359  and  _360
REMARK  135  A    between atoms: _359  and  _362
REMARK  136  A    between atoms: _362  and  _363
REMARK  137  A    between atoms: _363  and  _364
REMARK  138  A    between atoms: _364  and  _365
REMARK  139  A    between atoms: _365  and  _366
REMARK  140  A    between atoms: _370  and  _372
REMARK  141  A    between atoms: _372  and  _373
REMARK  142  A    between atoms: _372  and  _375
REMARK  143  A    between atoms: _375  and  _376
REMARK                            x       y       z     vdW  Elec       q    Type
REMARK                         _______ _______ _______ _____ _____    ______ ____
ROOT
ATOM      1  O   HOH     1      -5.792   9.934   1.971  0.00  0.00    +0.000 OA
ENDROOT
TORSDOF 0
