REMARK  Name = ../refined-set-2016/4mrg/4mrg_pocket.pdb
REMARK  98 active torsions:
REMARK  status: ('A' for Active; 'I' for Inactive)
REMARK    1  A    between atoms: _1  and  _3
REMARK    2  A    between atoms: _3  and  _4
REMARK    3  A    between atoms: _3  and  _6
REMARK    4  A    between atoms: _6  and  _7
REMARK    5  A    between atoms: _10  and  _12
REMARK    6  A    between atoms: _12  and  _13
REMARK    7  A    between atoms: _12  and  _15
REMARK    8  A    between atoms: _15  and  _16
REMARK    9  A    between atoms: _21  and  _23
REMARK   10  A    between atoms: _23  and  _24
REMARK   11  A    between atoms: _23  and  _26
REMARK   12  A    between atoms: _29  and  _31
REMARK   13  A    between atoms: _31  and  _32
REMARK   14  A    between atoms: _31  and  _34
REMARK   15  A    between atoms: _34  and  _35
REMARK   16  A    between atoms: _38  and  _40
REMARK   17  A    between atoms: _40  and  _41
REMARK   18  A    between atoms: _40  and  _43
REMARK   19  A    between atoms: _45  and  _47
REMARK   20  A    between atoms: _47  and  _48
REMARK   21  A    between atoms: _47  and  _50
REMARK   22  A    between atoms: _50  and  _51
REMARK   23  A    between atoms: _51  and  _52
REMARK   24  A    between atoms: _52  and  _53
REMARK   25  A    between atoms: _62  and  _64
REMARK   26  A    between atoms: _64  and  _65
REMARK   27  A    between atoms: _64  and  _67
REMARK   28  A    between atoms: _67  and  _68
REMARK   29  A    between atoms: _73  and  _75
REMARK   30  A    between atoms: _75  and  _76
REMARK   31  A    between atoms: _75  and  _78
REMARK   32  A    between atoms: _81  and  _83
REMARK   33  A    between atoms: _83  and  _84
REMARK   34  A    between atoms: _83  and  _86
REMARK   35  A    between atoms: _86  and  _87
REMARK   36  A    between atoms: _87  and  _88
REMARK   37  A    between atoms: _91  and  _93
REMARK   38  A    between atoms: _93  and  _94
REMARK   39  A    between atoms: _93  and  _96
REMARK   40  A    between atoms: _96  and  _97
REMARK   41  A    between atoms: _102  and  _104
REMARK   42  A    between atoms: _104  and  _105
REMARK   43  A    between atoms: _107  and  _109
REMARK   44  A    between atoms: _109  and  _110
REMARK   45  A    between atoms: _109  and  _112
REMARK   46  A    between atoms: _112  and  _113
REMARK   47  A    between atoms: _113  and  _114
REMARK   48  A    between atoms: _114  and  _115
REMARK   49  A    between atoms: _124  and  _126
REMARK   50  A    between atoms: _126  and  _127
REMARK   51  A    between atoms: _126  and  _129
REMARK   52  A    between atoms: _129  and  _130
REMARK   53  A    between atoms: _133  and  _135
REMARK   54  A    between atoms: _135  and  _136
REMARK   55  A    between atoms: _135  and  _138
REMARK   56  A    between atoms: _140  and  _142
REMARK   57  A    between atoms: _142  and  _143
REMARK   58  A    between atoms: _142  and  _145
REMARK   59  A    between atoms: _145  and  _146
REMARK   60  A    between atoms: _146  and  _147
REMARK   61  A    between atoms: _147  and  _148
REMARK   62  A    between atoms: _157  and  _159
REMARK   63  A    between atoms: _159  and  _160
REMARK   64  A    between atoms: _159  and  _162
REMARK   65  A    between atoms: _162  and  _163
REMARK   66  A    between atoms: _166  and  _168
REMARK   67  A    between atoms: _168  and  _169
REMARK   68  A    between atoms: _168  and  _171
REMARK   69  A    between atoms: _171  and  _172
REMARK   70  A    between atoms: _175  and  _177
REMARK   71  A    between atoms: _177  and  _178
REMARK   72  A    between atoms: _177  and  _180
REMARK   73  A    between atoms: _183  and  _185
REMARK   74  A    between atoms: _185  and  _186
REMARK   75  A    between atoms: _185  and  _188
REMARK   76  A    between atoms: _188  and  _189
REMARK   77  A    between atoms: _194  and  _196
REMARK   78  A    between atoms: _196  and  _197
REMARK   79  A    between atoms: _196  and  _199
REMARK   80  A    between atoms: _199  and  _200
REMARK   81  A    between atoms: _200  and  _201
REMARK   82  A    between atoms: _201  and  _202
REMARK   83  A    between atoms: _211  and  _213
REMARK   84  A    between atoms: _213  and  _214
REMARK   85  A    between atoms: _213  and  _216
REMARK   86  A    between atoms: _216  and  _217
REMARK   87  A    between atoms: _220  and  _222
REMARK   88  A    between atoms: _222  and  _223
REMARK   89  A    between atoms: _225  and  _227
REMARK   90  A    between atoms: _227  and  _228
REMARK   91  A    between atoms: _227  and  _230
REMARK   92  A    between atoms: _230  and  _231
REMARK   93  A    between atoms: _234  and  _236
REMARK   94  A    between atoms: _236  and  _237
REMARK   95  A    between atoms: _236  and  _239
REMARK   96  A    between atoms: _239  and  _240
REMARK   97  A    between atoms: _240  and  _241
REMARK   98  A    between atoms: _241  and  _242
REMARK                            x       y       z     vdW  Elec       q    Type
REMARK                         _______ _______ _______ _____ _____    ______ ____
ROOT
ATOM      1  CA  THR A   4       4.725  -4.038  -3.840  0.00  0.00    +0.176 C 
ENDROOT
BRANCH   1   3
ATOM      2  C   VAL A   3       6.107  -2.081  -3.378  0.00  0.00    +0.241 C 
ATOM      3  N   THR A   4       5.006  -2.768  -3.161  0.00  0.00    -0.295 N 
ATOM      4  H   THR A   4       4.309  -2.397  -2.483  0.00  0.00    +0.150 HD
ATOM      5  O   VAL A   3       7.005  -2.456  -4.152  0.00  0.00    -0.273 OA
BRANCH   2   6
ATOM      6  CA  VAL A   3       6.188  -0.766  -2.596  0.00  0.00    +0.149 C 
BRANCH   6   9
ATOM      7  C   ASN A   2       7.908  -0.245  -0.966  0.00  0.00    +0.241 C 
ATOM      8  O   ASN A   2       7.139  -0.439  -0.027  0.00  0.00    -0.273 OA
ATOM      9  N   VAL A   3       7.590  -0.446  -2.234  0.00  0.00    -0.297 N 
ATOM     10  H   VAL A   3       8.319  -0.380  -2.973  0.00  0.00    +0.150 HD
BRANCH   7  11
ATOM     11  CA  ASN A   2       9.298   0.224  -0.677  0.00  0.00    +0.158 C 
BRANCH  11  13
ATOM     12  C   LEU A   1       9.129   2.632  -0.532  0.00  0.00    +0.238 C 
ATOM     13  N   ASN A   2       9.194   1.454   0.089  0.00  0.00    -0.297 N 
ATOM     14  H   ASN A   2       9.170   1.415   1.128  0.00  0.00    +0.150 HD
ATOM     15  O   LEU A   1       9.129   2.748  -1.753  0.00  0.00    -0.274 OA
BRANCH  12  16
ATOM     16  CA  LEU A   1       9.073   3.862   0.341  0.00  0.00    +0.145 C 
BRANCH  16  17
ATOM     17  N   LEU A   1      10.372   4.534   0.171  0.00  0.00    -0.238 NA
ATOM     18  H   LEU A   1      10.673   4.853  -0.772  0.00  0.00    +0.142 HD
ENDBRANCH  16  17
BRANCH  16  19
ATOM     19  CB  LEU A   1       7.890   4.765  -0.070  0.00  0.00    +0.026 C 
BRANCH  19  20
ATOM     20  CG  LEU A   1       7.701   6.022   0.786  0.00  0.00    +0.002 C 
ATOM     21  CD2 LEU A   1       7.259   5.734   2.225  0.00  0.00    +0.000 C 
ATOM     22  CD1 LEU A   1       6.663   6.937   0.128  0.00  0.00    +0.000 C 
ENDBRANCH  19  20
ENDBRANCH  16  19
ENDBRANCH  12  16
ENDBRANCH  11  13
BRANCH  11  23
ATOM     23  CB  ASN A   2       9.978  -0.864   0.166  0.00  0.00    +0.114 C 
BRANCH  23  24
ATOM     24  CG  ASN A   2      11.408  -0.540   0.489  0.00  0.00    +0.222 C 
ATOM     25  ND2 ASN A   2      11.878  -1.100   1.599  0.00  0.00    -0.329 N 
ATOM     26 HD21 ASN A   2      11.272  -1.734   2.158  0.00  0.00    +0.145 HD
ATOM     27 HD22 ASN A   2      12.851  -0.904   1.908  0.00  0.00    +0.145 HD
ATOM     28  OD1 ASN A   2      12.090   0.224  -0.214  0.00  0.00    -0.275 OA
ENDBRANCH  23  24
ENDBRANCH  11  23
ENDBRANCH   7  11
ENDBRANCH   6   9
BRANCH   6  29
ATOM     29  CB  VAL A   3       5.531   0.340  -3.430  0.00  0.00    +0.027 C 
ATOM     30  CG2 VAL A   3       5.522   1.692  -2.673  0.00  0.00    +0.002 C 
ATOM     31  CG1 VAL A   3       6.268   0.532  -4.771  0.00  0.00    +0.002 C 
ENDBRANCH   6  29
ENDBRANCH   2   6
ENDBRANCH   1   3
BRANCH   1  32
ATOM     32  C   THR A   4       3.824  -3.916  -5.066  0.00  0.00    +0.243 C 
ATOM     33  O   THR A   4       3.266  -2.873  -5.356  0.00  0.00    -0.273 OA
ATOM     34  N   CYS A   5       3.697  -5.032  -5.783  0.00  0.00    -0.296 N 
ATOM     35  H   CYS A   5       4.385  -5.801  -5.654  0.00  0.00    +0.150 HD
BRANCH  34  36
ATOM     36  CA  CYS A   5       2.611  -5.197  -6.746  0.00  0.00    +0.160 C 
BRANCH  36  37
ATOM     37  C   CYS A   5       1.300  -4.870  -6.081  0.00  0.00    +0.242 C 
ATOM     38  O   CYS A   5       1.175  -5.039  -4.850  0.00  0.00    -0.273 OA
ATOM     39  N   ARG A   6       0.301  -4.495  -6.893  0.00  0.00    -0.298 N 
ATOM     40  H   ARG A   6       0.500  -4.345  -7.903  0.00  0.00    +0.150 HD
BRANCH  39  41
ATOM     41  CA  ARG A   6      -1.056  -4.292  -6.402  0.00  0.00    +0.137 C 
BRANCH  41  42
ATOM     42  C   ARG A   6      -1.857  -5.524  -6.723  0.00  0.00    +0.227 C 
ATOM     43  O   ARG A   6      -1.710  -6.116  -7.800  0.00  0.00    -0.286 OA
ENDBRANCH  41  42
BRANCH  41  44
ATOM     44  CB  ARG A   6      -1.733  -3.078  -7.068  0.00  0.00    +0.031 C 
BRANCH  44  45
ATOM     45  CG  ARG A   6      -1.355  -1.705  -6.386  0.00  0.00    +0.045 C 
BRANCH  45  46
ATOM     46  CD  ARG A   6       0.141  -1.324  -6.517  0.00  0.00    +0.174 C 
BRANCH  46  47
ATOM     47  NE  ARG A   6       0.397  -1.090  -7.944  0.00  0.00    -0.265 N 
ATOM     48  HE  ARG A   6      -0.370  -0.648  -8.490  0.00  0.00    +0.259 HD
ATOM     49  CZ  ARG A   6       1.511  -1.386  -8.608  0.00  0.00    +0.342 C 
ATOM     50  NH2 ARG A   6       2.597  -1.881  -7.996  0.00  0.00    -0.292 N 
ATOM     51 HH21 ARG A   6       2.586  -2.045  -6.969  0.00  0.00    +0.255 HD
ATOM     52 HH22 ARG A   6       3.450  -2.101  -8.548  0.00  0.00    +0.255 HD
ATOM     53  NH1 ARG A   6       1.514  -1.127  -9.918  0.00  0.00    -0.292 N 
ATOM     54 HH11 ARG A   6       0.672  -0.714 -10.368  0.00  0.00    +0.255 HD
ATOM     55 HH12 ARG A   6       2.358  -1.338 -10.488  0.00  0.00    +0.255 HD
ENDBRANCH  46  47
ENDBRANCH  45  46
ENDBRANCH  44  45
ENDBRANCH  41  44
ENDBRANCH  39  41
ENDBRANCH  36  37
BRANCH  36  56
ATOM     56  CB  CYS A   5       2.506  -6.682  -7.073  0.00  0.00    +0.098 C 
ATOM     57  SG  CYS A   5       3.960  -7.375  -7.893  0.00  0.00    -0.080 S 
ENDBRANCH  36  56
ENDBRANCH  34  36
ENDBRANCH   1  32
BRANCH   1  58
ATOM     58  CB  THR A   4       4.044  -5.070  -2.902  0.00  0.00    +0.137 C 
ATOM     59  CG2 THR A   4       4.870  -5.285  -1.628  0.00  0.00    +0.034 C 
BRANCH  58  60
ATOM     60  OG1 THR A   4       2.698  -4.644  -2.569  0.00  0.00    -0.382 OA
ATOM     61  HG1 THR A   4       2.164  -4.562  -3.399  0.00  0.00    +0.210 HD
ENDBRANCH  58  60
ENDBRANCH   1  58
TORSDOF 24
REMARK  Name = ../refined-set-2016/4mrg/4mrg_pocket.pdb
REMARK  98 active torsions:
REMARK  status: ('A' for Active; 'I' for Inactive)
REMARK    1  A    between atoms: _1  and  _3
REMARK    2  A    between atoms: _3  and  _4
REMARK    3  A    between atoms: _3  and  _6
REMARK    4  A    between atoms: _6  and  _7
REMARK    5  A    between atoms: _10  and  _12
REMARK    6  A    between atoms: _12  and  _13
REMARK    7  A    between atoms: _12  and  _15
REMARK    8  A    between atoms: _15  and  _16
REMARK    9  A    between atoms: _21  and  _23
REMARK   10  A    between atoms: _23  and  _24
REMARK   11  A    between atoms: _23  and  _26
REMARK   12  A    between atoms: _29  and  _31
REMARK   13  A    between atoms: _31  and  _32
REMARK   14  A    between atoms: _31  and  _34
REMARK   15  A    between atoms: _34  and  _35
REMARK   16  A    between atoms: _38  and  _40
REMARK   17  A    between atoms: _40  and  _41
REMARK   18  A    between atoms: _40  and  _43
REMARK   19  A    between atoms: _45  and  _47
REMARK   20  A    between atoms: _47  and  _48
REMARK   21  A    between atoms: _47  and  _50
REMARK   22  A    between atoms: _50  and  _51
REMARK   23  A    between atoms: _51  and  _52
REMARK   24  A    between atoms: _52  and  _53
REMARK   25  A    between atoms: _62  and  _64
REMARK   26  A    between atoms: _64  and  _65
REMARK   27  A    between atoms: _64  and  _67
REMARK   28  A    between atoms: _67  and  _68
REMARK   29  A    between atoms: _73  and  _75
REMARK   30  A    between atoms: _75  and  _76
REMARK   31  A    between atoms: _75  and  _78
REMARK   32  A    between atoms: _81  and  _83
REMARK   33  A    between atoms: _83  and  _84
REMARK   34  A    between atoms: _83  and  _86
REMARK   35  A    between atoms: _86  and  _87
REMARK   36  A    between atoms: _87  and  _88
REMARK   37  A    between atoms: _91  and  _93
REMARK   38  A    between atoms: _93  and  _94
REMARK   39  A    between atoms: _93  and  _96
REMARK   40  A    between atoms: _96  and  _97
REMARK   41  A    between atoms: _102  and  _104
REMARK   42  A    between atoms: _104  and  _105
REMARK   43  A    between atoms: _107  and  _109
REMARK   44  A    between atoms: _109  and  _110
REMARK   45  A    between atoms: _109  and  _112
REMARK   46  A    between atoms: _112  and  _113
REMARK   47  A    between atoms: _113  and  _114
REMARK   48  A    between atoms: _114  and  _115
REMARK   49  A    between atoms: _124  and  _126
REMARK   50  A    between atoms: _126  and  _127
REMARK   51  A    between atoms: _126  and  _129
REMARK   52  A    between atoms: _129  and  _130
REMARK   53  A    between atoms: _133  and  _135
REMARK   54  A    between atoms: _135  and  _136
REMARK   55  A    between atoms: _135  and  _138
REMARK   56  A    between atoms: _140  and  _142
REMARK   57  A    between atoms: _142  and  _143
REMARK   58  A    between atoms: _142  and  _145
REMARK   59  A    between atoms: _145  and  _146
REMARK   60  A    between atoms: _146  and  _147
REMARK   61  A    between atoms: _147  and  _148
REMARK   62  A    between atoms: _157  and  _159
REMARK   63  A    between atoms: _159  and  _160
REMARK   64  A    between atoms: _159  and  _162
REMARK   65  A    between atoms: _162  and  _163
REMARK   66  A    between atoms: _166  and  _168
REMARK   67  A    between atoms: _168  and  _169
REMARK   68  A    between atoms: _168  and  _171
REMARK   69  A    between atoms: _171  and  _172
REMARK   70  A    between atoms: _175  and  _177
REMARK   71  A    between atoms: _177  and  _178
REMARK   72  A    between atoms: _177  and  _180
REMARK   73  A    between atoms: _183  and  _185
REMARK   74  A    between atoms: _185  and  _186
REMARK   75  A    between atoms: _185  and  _188
REMARK   76  A    between atoms: _188  and  _189
REMARK   77  A    between atoms: _194  and  _196
REMARK   78  A    between atoms: _196  and  _197
REMARK   79  A    between atoms: _196  and  _199
REMARK   80  A    between atoms: _199  and  _200
REMARK   81  A    between atoms: _200  and  _201
REMARK   82  A    between atoms: _201  and  _202
REMARK   83  A    between atoms: _211  and  _213
REMARK   84  A    between atoms: _213  and  _214
REMARK   85  A    between atoms: _213  and  _216
REMARK   86  A    between atoms: _216  and  _217
REMARK   87  A    between atoms: _220  and  _222
REMARK   88  A    between atoms: _222  and  _223
REMARK   89  A    between atoms: _225  and  _227
REMARK   90  A    between atoms: _227  and  _228
REMARK   91  A    between atoms: _227  and  _230
REMARK   92  A    between atoms: _230  and  _231
REMARK   93  A    between atoms: _234  and  _236
REMARK   94  A    between atoms: _236  and  _237
REMARK   95  A    between atoms: _236  and  _239
REMARK   96  A    between atoms: _239  and  _240
REMARK   97  A    between atoms: _240  and  _241
REMARK   98  A    between atoms: _241  and  _242
REMARK                            x       y       z     vdW  Elec       q    Type
REMARK                         _______ _______ _______ _____ _____    ______ ____
ROOT
ATOM      1  CA  VAL A   2       4.482  -0.059   1.725  0.00  0.00    +0.148 C 
ENDROOT
BRANCH   1   3
ATOM      2  C   HIS A   1       3.278  -1.967   0.720  0.00  0.00    +0.239 C 
ATOM      3  N   VAL A   2       3.464  -1.112   1.745  0.00  0.00    -0.297 N 
ATOM      4  H   VAL A   2       2.859  -1.204   2.586  0.00  0.00    +0.150 HD
ATOM      5  O   HIS A   1       3.937  -1.913  -0.326  0.00  0.00    -0.274 OA
BRANCH   2   6
ATOM      6  CA  HIS A   1       2.196  -3.056   0.873  0.00  0.00    +0.151 C 
BRANCH   6   7
ATOM      7  N   HIS A   1       1.417  -3.198  -0.393  0.00  0.00    -0.238 NA
ATOM      8  H   HIS A   1       1.871  -3.675  -1.198  0.00  0.00    +0.142 HD
ENDBRANCH   6   7
BRANCH   6   9
ATOM      9  CB  HIS A   1       2.823  -4.439   1.182  0.00  0.00    +0.074 C 
BRANCH   9  10
ATOM     10  CG  HIS A   1       3.813  -4.449   2.300  0.00  0.00    +0.082 A 
ATOM     11  CD2 HIS A   1       3.694  -4.099   3.607  0.00  0.00    +0.115 A 
ATOM     12  NE2 HIS A   1       4.912  -4.332   4.199  0.00  0.00    -0.221 NA
ATOM     13  CE1 HIS A   1       5.757  -4.795   3.288  0.00  0.00    +0.199 A 
ATOM     14  ND1 HIS A   1       5.117  -4.885   2.135  0.00  0.00    -0.227 NA
ENDBRANCH   9  10
ENDBRANCH   6   9
ENDBRANCH   2   6
ENDBRANCH   1   3
BRANCH   1  15
ATOM     15  C   VAL A   2       5.319  -0.209   2.998  0.00  0.00    +0.241 C 
ATOM     16  O   VAL A   2       4.763  -0.256   4.109  0.00  0.00    -0.273 OA
ATOM     17  N   GLU A   3       6.650  -0.252   2.847  0.00  0.00    -0.298 N 
ATOM     18  H   GLU A   3       7.044  -0.322   1.887  0.00  0.00    +0.150 HD
BRANCH  17  19
ATOM     19  CA  GLU A   3       7.581  -0.203   4.001  0.00  0.00    +0.137 C 
BRANCH  19  20
ATOM     20  C   GLU A   3       8.311   1.091   3.955  0.00  0.00    +0.227 C 
ATOM     21  O   GLU A   3       8.822   1.451   2.878  0.00  0.00    -0.286 OA
ENDBRANCH  19  20
BRANCH  19  22
ATOM     22  CB  GLU A   3       8.676  -1.290   3.946  0.00  0.00    +0.039 C 
BRANCH  22  23
ATOM     23  CG  GLU A   3       8.208  -2.698   3.936  0.00  0.00    +0.116 C 
BRANCH  23  24
ATOM     24  CD  GLU A   3       9.317  -3.676   3.608  0.00  0.00    +0.365 C 
ATOM     25  OE2 GLU A   3       9.074  -4.867   3.850  0.00  0.00    -0.246 OA
ATOM     26  OE1 GLU A   3      10.388  -3.276   3.049  0.00  0.00    -0.246 OA
ENDBRANCH  23  24
ENDBRANCH  22  23
ENDBRANCH  19  22
ENDBRANCH  17  19
ENDBRANCH   1  15
BRANCH   1  27
ATOM     27  CB  VAL A   2       3.837   1.359   1.716  0.00  0.00    +0.027 C 
ATOM     28  CG2 VAL A   2       4.945   2.480   1.538  0.00  0.00    +0.002 C 
ATOM     29  CG1 VAL A   2       2.749   1.486   0.621  0.00  0.00    +0.002 C 
ENDBRANCH   1  27
TORSDOF 12
REMARK  Name = ../refined-set-2016/4mrg/4mrg_pocket.pdb
REMARK  98 active torsions:
REMARK  status: ('A' for Active; 'I' for Inactive)
REMARK    1  A    between atoms: _1  and  _3
REMARK    2  A    between atoms: _3  and  _4
REMARK    3  A    between atoms: _3  and  _6
REMARK    4  A    between atoms: _6  and  _7
REMARK    5  A    between atoms: _10  and  _12
REMARK    6  A    between atoms: _12  and  _13
REMARK    7  A    between atoms: _12  and  _15
REMARK    8  A    between atoms: _15  and  _16
REMARK    9  A    between atoms: _21  and  _23
REMARK   10  A    between atoms: _23  and  _24
REMARK   11  A    between atoms: _23  and  _26
REMARK   12  A    between atoms: _29  and  _31
REMARK   13  A    between atoms: _31  and  _32
REMARK   14  A    between atoms: _31  and  _34
REMARK   15  A    between atoms: _34  and  _35
REMARK   16  A    between atoms: _38  and  _40
REMARK   17  A    between atoms: _40  and  _41
REMARK   18  A    between atoms: _40  and  _43
REMARK   19  A    between atoms: _45  and  _47
REMARK   20  A    between atoms: _47  and  _48
REMARK   21  A    between atoms: _47  and  _50
REMARK   22  A    between atoms: _50  and  _51
REMARK   23  A    between atoms: _51  and  _52
REMARK   24  A    between atoms: _52  and  _53
REMARK   25  A    between atoms: _62  and  _64
REMARK   26  A    between atoms: _64  and  _65
REMARK   27  A    between atoms: _64  and  _67
REMARK   28  A    between atoms: _67  and  _68
REMARK   29  A    between atoms: _73  and  _75
REMARK   30  A    between atoms: _75  and  _76
REMARK   31  A    between atoms: _75  and  _78
REMARK   32  A    between atoms: _81  and  _83
REMARK   33  A    between atoms: _83  and  _84
REMARK   34  A    between atoms: _83  and  _86
REMARK   35  A    between atoms: _86  and  _87
REMARK   36  A    between atoms: _87  and  _88
REMARK   37  A    between atoms: _91  and  _93
REMARK   38  A    between atoms: _93  and  _94
REMARK   39  A    between atoms: _93  and  _96
REMARK   40  A    between atoms: _96  and  _97
REMARK   41  A    between atoms: _102  and  _104
REMARK   42  A    between atoms: _104  and  _105
REMARK   43  A    between atoms: _107  and  _109
REMARK   44  A    between atoms: _109  and  _110
REMARK   45  A    between atoms: _109  and  _112
REMARK   46  A    between atoms: _112  and  _113
REMARK   47  A    between atoms: _113  and  _114
REMARK   48  A    between atoms: _114  and  _115
REMARK   49  A    between atoms: _124  and  _126
REMARK   50  A    between atoms: _126  and  _127
REMARK   51  A    between atoms: _126  and  _129
REMARK   52  A    between atoms: _129  and  _130
REMARK   53  A    between atoms: _133  and  _135
REMARK   54  A    between atoms: _135  and  _136
REMARK   55  A    between atoms: _135  and  _138
REMARK   56  A    between atoms: _140  and  _142
REMARK   57  A    between atoms: _142  and  _143
REMARK   58  A    between atoms: _142  and  _145
REMARK   59  A    between atoms: _145  and  _146
REMARK   60  A    between atoms: _146  and  _147
REMARK   61  A    between atoms: _147  and  _148
REMARK   62  A    between atoms: _157  and  _159
REMARK   63  A    between atoms: _159  and  _160
REMARK   64  A    between atoms: _159  and  _162
REMARK   65  A    between atoms: _162  and  _163
REMARK   66  A    between atoms: _166  and  _168
REMARK   67  A    between atoms: _168  and  _169
REMARK   68  A    between atoms: _168  and  _171
REMARK   69  A    between atoms: _171  and  _172
REMARK   70  A    between atoms: _175  and  _177
REMARK   71  A    between atoms: _177  and  _178
REMARK   72  A    between atoms: _177  and  _180
REMARK   73  A    between atoms: _183  and  _185
REMARK   74  A    between atoms: _185  and  _186
REMARK   75  A    between atoms: _185  and  _188
REMARK   76  A    between atoms: _188  and  _189
REMARK   77  A    between atoms: _194  and  _196
REMARK   78  A    between atoms: _196  and  _197
REMARK   79  A    between atoms: _196  and  _199
REMARK   80  A    between atoms: _199  and  _200
REMARK   81  A    between atoms: _200  and  _201
REMARK   82  A    between atoms: _201  and  _202
REMARK   83  A    between atoms: _211  and  _213
REMARK   84  A    between atoms: _213  and  _214
REMARK   85  A    between atoms: _213  and  _216
REMARK   86  A    between atoms: _216  and  _217
REMARK   87  A    between atoms: _220  and  _222
REMARK   88  A    between atoms: _222  and  _223
REMARK   89  A    between atoms: _225  and  _227
REMARK   90  A    between atoms: _227  and  _228
REMARK   91  A    between atoms: _227  and  _230
REMARK   92  A    between atoms: _230  and  _231
REMARK   93  A    between atoms: _234  and  _236
REMARK   94  A    between atoms: _236  and  _237
REMARK   95  A    between atoms: _236  and  _239
REMARK   96  A    between atoms: _239  and  _240
REMARK   97  A    between atoms: _240  and  _241
REMARK   98  A    between atoms: _241  and  _242
REMARK                            x       y       z     vdW  Elec       q    Type
REMARK                         _______ _______ _______ _____ _____    ______ ____
ROOT
ATOM      1  C   GLY A   2      12.549  -1.620   6.394  0.00  0.00    +0.243 C 
ATOM      2  N   ARG A   3      11.903  -0.888   7.304  0.00  0.00    -0.298 N 
ATOM      3  H   ARG A   3      11.386  -0.042   6.989  0.00  0.00    +0.150 HD
ATOM      4  O   GLY A   2      13.173  -2.646   6.684  0.00  0.00    -0.273 OA
ENDROOT
BRANCH   1   5
ATOM      5  CA  GLY A   2      12.507  -1.153   4.940  0.00  0.00    +0.176 C 
BRANCH   5   8
ATOM      6  C   ASN A   1      13.196   1.122   5.238  0.00  0.00    +0.239 C 
ATOM      7  O   ASN A   1      14.191   0.759   5.860  0.00  0.00    -0.274 OA
ATOM      8  N   GLY A   2      12.298   0.262   4.779  0.00  0.00    -0.296 N 
ATOM      9  H   GLY A   2      11.442   0.610   4.302  0.00  0.00    +0.150 HD
BRANCH   6  10
ATOM     10  CA  ASN A   1      12.952   2.596   4.929  0.00  0.00    +0.154 C 
BRANCH  10  11
ATOM     11  N   ASN A   1      11.538   2.911   4.667  0.00  0.00    -0.238 NA
ATOM     12  H   ASN A   1      11.290   3.363   3.764  0.00  0.00    +0.142 HD
ENDBRANCH  10  11
BRANCH  10  13
ATOM     13  CB  ASN A   1      13.487   3.527   6.046  0.00  0.00    +0.111 C 
BRANCH  13  14
ATOM     14  CG  ASN A   1      13.489   4.997   5.629  0.00  0.00    +0.221 C 
ATOM     15  ND2 ASN A   1      13.164   5.898   6.572  0.00  0.00    -0.329 N 
ATOM     16 HD21 ASN A   1      12.913   5.581   7.530  0.00  0.00    +0.145 HD
ATOM     17 HD22 ASN A   1      13.163   6.913   6.344  0.00  0.00    +0.145 HD
ATOM     18  OD1 ASN A   1      13.797   5.320   4.468  0.00  0.00    -0.275 OA
ENDBRANCH  13  14
ENDBRANCH  10  13
ENDBRANCH   6  10
ENDBRANCH   5   8
ENDBRANCH   1   5
BRANCH   2  19
ATOM     19  CA  ARG A   3      11.893  -1.227   8.723  0.00  0.00    +0.137 C 
BRANCH  19  20
ATOM     20  C   ARG A   3      10.581  -0.747   9.343  0.00  0.00    +0.227 C 
ATOM     21  O   ARG A   3      10.057   0.290   8.942  0.00  0.00    -0.286 OA
ENDBRANCH  19  20
BRANCH  19  22
ATOM     22  CB  ARG A   3      13.105  -0.611   9.439  0.00  0.00    +0.031 C 
BRANCH  22  23
ATOM     23  CG  ARG A   3      13.281   0.890   9.242  0.00  0.00    +0.045 C 
BRANCH  23  24
ATOM     24  CD  ARG A   3      14.458   1.431  10.068  0.00  0.00    +0.174 C 
BRANCH  24  25
ATOM     25  NE  ARG A   3      14.428   2.891  10.179  0.00  0.00    -0.265 N 
ATOM     26  HE  ARG A   3      13.751   3.318  10.843  0.00  0.00    +0.259 HD
ATOM     27  CZ  ARG A   3      15.216   3.702   9.480  0.00  0.00    +0.342 C 
ATOM     28  NH2 ARG A   3      15.130   5.019   9.631  0.00  0.00    -0.292 N 
ATOM     29 HH21 ARG A   3      14.443   5.422  10.300  0.00  0.00    +0.255 HD
ATOM     30 HH22 ARG A   3      15.750   5.647   9.081  0.00  0.00    +0.255 HD
ATOM     31  NH1 ARG A   3      16.094   3.193   8.622  0.00  0.00    -0.292 N 
ATOM     32 HH11 ARG A   3      16.163   2.163   8.499  0.00  0.00    +0.255 HD
ATOM     33 HH12 ARG A   3      16.712   3.825   8.074  0.00  0.00    +0.255 HD
ENDBRANCH  24  25
ENDBRANCH  23  24
ENDBRANCH  22  23
ENDBRANCH  19  22
ENDBRANCH   2  19
TORSDOF 12
REMARK  Name = ../refined-set-2016/4mrg/4mrg_pocket.pdb
REMARK  98 active torsions:
REMARK  status: ('A' for Active; 'I' for Inactive)
REMARK    1  A    between atoms: _1  and  _3
REMARK    2  A    between atoms: _3  and  _4
REMARK    3  A    between atoms: _3  and  _6
REMARK    4  A    between atoms: _6  and  _7
REMARK    5  A    between atoms: _10  and  _12
REMARK    6  A    between atoms: _12  and  _13
REMARK    7  A    between atoms: _12  and  _15
REMARK    8  A    between atoms: _15  and  _16
REMARK    9  A    between atoms: _21  and  _23
REMARK   10  A    between atoms: _23  and  _24
REMARK   11  A    between atoms: _23  and  _26
REMARK   12  A    between atoms: _29  and  _31
REMARK   13  A    between atoms: _31  and  _32
REMARK   14  A    between atoms: _31  and  _34
REMARK   15  A    between atoms: _34  and  _35
REMARK   16  A    between atoms: _38  and  _40
REMARK   17  A    between atoms: _40  and  _41
REMARK   18  A    between atoms: _40  and  _43
REMARK   19  A    between atoms: _45  and  _47
REMARK   20  A    between atoms: _47  and  _48
REMARK   21  A    between atoms: _47  and  _50
REMARK   22  A    between atoms: _50  and  _51
REMARK   23  A    between atoms: _51  and  _52
REMARK   24  A    between atoms: _52  and  _53
REMARK   25  A    between atoms: _62  and  _64
REMARK   26  A    between atoms: _64  and  _65
REMARK   27  A    between atoms: _64  and  _67
REMARK   28  A    between atoms: _67  and  _68
REMARK   29  A    between atoms: _73  and  _75
REMARK   30  A    between atoms: _75  and  _76
REMARK   31  A    between atoms: _75  and  _78
REMARK   32  A    between atoms: _81  and  _83
REMARK   33  A    between atoms: _83  and  _84
REMARK   34  A    between atoms: _83  and  _86
REMARK   35  A    between atoms: _86  and  _87
REMARK   36  A    between atoms: _87  and  _88
REMARK   37  A    between atoms: _91  and  _93
REMARK   38  A    between atoms: _93  and  _94
REMARK   39  A    between atoms: _93  and  _96
REMARK   40  A    between atoms: _96  and  _97
REMARK   41  A    between atoms: _102  and  _104
REMARK   42  A    between atoms: _104  and  _105
REMARK   43  A    between atoms: _107  and  _109
REMARK   44  A    between atoms: _109  and  _110
REMARK   45  A    between atoms: _109  and  _112
REMARK   46  A    between atoms: _112  and  _113
REMARK   47  A    between atoms: _113  and  _114
REMARK   48  A    between atoms: _114  and  _115
REMARK   49  A    between atoms: _124  and  _126
REMARK   50  A    between atoms: _126  and  _127
REMARK   51  A    between atoms: _126  and  _129
REMARK   52  A    between atoms: _129  and  _130
REMARK   53  A    between atoms: _133  and  _135
REMARK   54  A    between atoms: _135  and  _136
REMARK   55  A    between atoms: _135  and  _138
REMARK   56  A    between atoms: _140  and  _142
REMARK   57  A    between atoms: _142  and  _143
REMARK   58  A    between atoms: _142  and  _145
REMARK   59  A    between atoms: _145  and  _146
REMARK   60  A    between atoms: _146  and  _147
REMARK   61  A    between atoms: _147  and  _148
REMARK   62  A    between atoms: _157  and  _159
REMARK   63  A    between atoms: _159  and  _160
REMARK   64  A    between atoms: _159  and  _162
REMARK   65  A    between atoms: _162  and  _163
REMARK   66  A    between atoms: _166  and  _168
REMARK   67  A    between atoms: _168  and  _169
REMARK   68  A    between atoms: _168  and  _171
REMARK   69  A    between atoms: _171  and  _172
REMARK   70  A    between atoms: _175  and  _177
REMARK   71  A    between atoms: _177  and  _178
REMARK   72  A    between atoms: _177  and  _180
REMARK   73  A    between atoms: _183  and  _185
REMARK   74  A    between atoms: _185  and  _186
REMARK   75  A    between atoms: _185  and  _188
REMARK   76  A    between atoms: _188  and  _189
REMARK   77  A    between atoms: _194  and  _196
REMARK   78  A    between atoms: _196  and  _197
REMARK   79  A    between atoms: _196  and  _199
REMARK   80  A    between atoms: _199  and  _200
REMARK   81  A    between atoms: _200  and  _201
REMARK   82  A    between atoms: _201  and  _202
REMARK   83  A    between atoms: _211  and  _213
REMARK   84  A    between atoms: _213  and  _214
REMARK   85  A    between atoms: _213  and  _216
REMARK   86  A    between atoms: _216  and  _217
REMARK   87  A    between atoms: _220  and  _222
REMARK   88  A    between atoms: _222  and  _223
REMARK   89  A    between atoms: _225  and  _227
REMARK   90  A    between atoms: _227  and  _228
REMARK   91  A    between atoms: _227  and  _230
REMARK   92  A    between atoms: _230  and  _231
REMARK   93  A    between atoms: _234  and  _236
REMARK   94  A    between atoms: _236  and  _237
REMARK   95  A    between atoms: _236  and  _239
REMARK   96  A    between atoms: _239  and  _240
REMARK   97  A    between atoms: _240  and  _241
REMARK   98  A    between atoms: _241  and  _242
REMARK                            x       y       z     vdW  Elec       q    Type
REMARK                         _______ _______ _______ _____ _____    ______ ____
ROOT
ATOM      1  C   CYS A   2       5.928 -10.402   6.483  0.00  0.00    +0.242 C 
ATOM      2  O   CYS A   2       6.923 -10.404   7.258  0.00  0.00    -0.273 OA
ATOM      3  N   ARG A   3       5.053  -9.397   6.381  0.00  0.00    -0.298 N 
ATOM      4  H   ARG A   3       4.259  -9.493   5.716  0.00  0.00    +0.150 HD
ENDROOT
BRANCH   1   5
ATOM      5  CA  CYS A   2       5.707 -11.557   5.518  0.00  0.00    +0.160 C 
BRANCH   5   7
ATOM      6  C   THR A   1       4.079 -11.380   3.714  0.00  0.00    +0.241 C 
ATOM      7  N   CYS A   2       5.257 -11.013   4.236  0.00  0.00    -0.296 N 
ATOM      8  H   CYS A   2       5.858 -10.335   3.725  0.00  0.00    +0.150 HD
ATOM      9  O   THR A   1       3.337 -12.237   4.224  0.00  0.00    -0.274 OA
BRANCH   6  10
ATOM     10  CA  THR A   1       3.638 -10.614   2.486  0.00  0.00    +0.172 C 
BRANCH  10  11
ATOM     11  N   THR A   1       2.346 -11.168   2.039  0.00  0.00    -0.236 NA
ATOM     12  H   THR A   1       1.600 -11.356   2.739  0.00  0.00    +0.142 HD
ENDBRANCH  10  11
BRANCH  10  13
ATOM     13  CB  THR A   1       3.522  -9.167   2.904  0.00  0.00    +0.135 C 
ATOM     14  CG2 THR A   1       2.695  -8.298   1.912  0.00  0.00    +0.034 C 
BRANCH  13  15
ATOM     15  OG1 THR A   1       2.908  -9.108   4.189  0.00  0.00    -0.383 OA
ATOM     16  HG1 THR A   1       2.827  -8.163   4.472  0.00  0.00    +0.210 HD
ENDBRANCH  13  15
ENDBRANCH  10  13
ENDBRANCH   6  10
ENDBRANCH   5   7
BRANCH   5  17
ATOM     17  CB  CYS A   2       7.004 -12.318   5.332  0.00  0.00    +0.098 C 
ATOM     18  SG  CYS A   2       7.428 -13.300   6.791  0.00  0.00    -0.080 S 
ENDBRANCH   5  17
ENDBRANCH   1   5
BRANCH   3  19
ATOM     19  CA  ARG A   3       5.165  -8.162   7.169  0.00  0.00    +0.137 C 
BRANCH  19  20
ATOM     20  C   ARG A   3       3.826  -7.665   7.764  0.00  0.00    +0.227 C 
ATOM     21  O   ARG A   3       2.788  -7.588   7.065  0.00  0.00    -0.286 OA
ENDBRANCH  19  20
BRANCH  19  22
ATOM     22  CB  ARG A   3       5.742  -7.029   6.307  0.00  0.00    +0.031 C 
BRANCH  22  23
ATOM     23  CG  ARG A   3       7.152  -7.319   5.791  0.00  0.00    +0.045 C 
BRANCH  23  24
ATOM     24  CD  ARG A   3       8.244  -7.058   6.873  0.00  0.00    +0.174 C 
BRANCH  24  25
ATOM     25  NE  ARG A   3       8.398  -5.615   7.168  0.00  0.00    -0.265 N 
ATOM     26  CZ  ARG A   3       9.290  -5.085   8.005  0.00  0.00    +0.342 C 
ATOM     27  NH2 ARG A   3      10.203  -5.858   8.607  0.00  0.00    -0.292 N 
ATOM     28 HH21 ARG A   3      10.895  -5.435   9.258  0.00  0.00    +0.255 HD
ATOM     29 HH22 ARG A   3      10.220  -6.881   8.423  0.00  0.00    +0.255 HD
ATOM     30  NH1 ARG A   3       9.321  -3.748   8.154  0.00  0.00    -0.292 N 
ATOM     31 HH11 ARG A   3      10.009  -3.313   8.802  0.00  0.00    +0.255 HD
ATOM     32 HH12 ARG A   3       8.657  -3.150   7.622  0.00  0.00    +0.255 HD
ATOM     33  HE  ARG A   3       7.755  -4.959   6.680  0.00  0.00    +0.259 HD
ENDBRANCH  24  25
ENDBRANCH  23  24
ENDBRANCH  22  23
ENDBRANCH  19  22
ENDBRANCH   3  19
TORSDOF 13
REMARK  Name = ../refined-set-2016/4mrg/4mrg_pocket.pdb
REMARK  98 active torsions:
REMARK  status: ('A' for Active; 'I' for Inactive)
REMARK    1  A    between atoms: _1  and  _3
REMARK    2  A    between atoms: _3  and  _4
REMARK    3  A    between atoms: _3  and  _6
REMARK    4  A    between atoms: _6  and  _7
REMARK    5  A    between atoms: _10  and  _12
REMARK    6  A    between atoms: _12  and  _13
REMARK    7  A    between atoms: _12  and  _15
REMARK    8  A    between atoms: _15  and  _16
REMARK    9  A    between atoms: _21  and  _23
REMARK   10  A    between atoms: _23  and  _24
REMARK   11  A    between atoms: _23  and  _26
REMARK   12  A    between atoms: _29  and  _31
REMARK   13  A    between atoms: _31  and  _32
REMARK   14  A    between atoms: _31  and  _34
REMARK   15  A    between atoms: _34  and  _35
REMARK   16  A    between atoms: _38  and  _40
REMARK   17  A    between atoms: _40  and  _41
REMARK   18  A    between atoms: _40  and  _43
REMARK   19  A    between atoms: _45  and  _47
REMARK   20  A    between atoms: _47  and  _48
REMARK   21  A    between atoms: _47  and  _50
REMARK   22  A    between atoms: _50  and  _51
REMARK   23  A    between atoms: _51  and  _52
REMARK   24  A    between atoms: _52  and  _53
REMARK   25  A    between atoms: _62  and  _64
REMARK   26  A    between atoms: _64  and  _65
REMARK   27  A    between atoms: _64  and  _67
REMARK   28  A    between atoms: _67  and  _68
REMARK   29  A    between atoms: _73  and  _75
REMARK   30  A    between atoms: _75  and  _76
REMARK   31  A    between atoms: _75  and  _78
REMARK   32  A    between atoms: _81  and  _83
REMARK   33  A    between atoms: _83  and  _84
REMARK   34  A    between atoms: _83  and  _86
REMARK   35  A    between atoms: _86  and  _87
REMARK   36  A    between atoms: _87  and  _88
REMARK   37  A    between atoms: _91  and  _93
REMARK   38  A    between atoms: _93  and  _94
REMARK   39  A    between atoms: _93  and  _96
REMARK   40  A    between atoms: _96  and  _97
REMARK   41  A    between atoms: _102  and  _104
REMARK   42  A    between atoms: _104  and  _105
REMARK   43  A    between atoms: _107  and  _109
REMARK   44  A    between atoms: _109  and  _110
REMARK   45  A    between atoms: _109  and  _112
REMARK   46  A    between atoms: _112  and  _113
REMARK   47  A    between atoms: _113  and  _114
REMARK   48  A    between atoms: _114  and  _115
REMARK   49  A    between atoms: _124  and  _126
REMARK   50  A    between atoms: _126  and  _127
REMARK   51  A    between atoms: _126  and  _129
REMARK   52  A    between atoms: _129  and  _130
REMARK   53  A    between atoms: _133  and  _135
REMARK   54  A    between atoms: _135  and  _136
REMARK   55  A    between atoms: _135  and  _138
REMARK   56  A    between atoms: _140  and  _142
REMARK   57  A    between atoms: _142  and  _143
REMARK   58  A    between atoms: _142  and  _145
REMARK   59  A    between atoms: _145  and  _146
REMARK   60  A    between atoms: _146  and  _147
REMARK   61  A    between atoms: _147  and  _148
REMARK   62  A    between atoms: _157  and  _159
REMARK   63  A    between atoms: _159  and  _160
REMARK   64  A    between atoms: _159  and  _162
REMARK   65  A    between atoms: _162  and  _163
REMARK   66  A    between atoms: _166  and  _168
REMARK   67  A    between atoms: _168  and  _169
REMARK   68  A    between atoms: _168  and  _171
REMARK   69  A    between atoms: _171  and  _172
REMARK   70  A    between atoms: _175  and  _177
REMARK   71  A    between atoms: _177  and  _178
REMARK   72  A    between atoms: _177  and  _180
REMARK   73  A    between atoms: _183  and  _185
REMARK   74  A    between atoms: _185  and  _186
REMARK   75  A    between atoms: _185  and  _188
REMARK   76  A    between atoms: _188  and  _189
REMARK   77  A    between atoms: _194  and  _196
REMARK   78  A    between atoms: _196  and  _197
REMARK   79  A    between atoms: _196  and  _199
REMARK   80  A    between atoms: _199  and  _200
REMARK   81  A    between atoms: _200  and  _201
REMARK   82  A    between atoms: _201  and  _202
REMARK   83  A    between atoms: _211  and  _213
REMARK   84  A    between atoms: _213  and  _214
REMARK   85  A    between atoms: _213  and  _216
REMARK   86  A    between atoms: _216  and  _217
REMARK   87  A    between atoms: _220  and  _222
REMARK   88  A    between atoms: _222  and  _223
REMARK   89  A    between atoms: _225  and  _227
REMARK   90  A    between atoms: _227  and  _228
REMARK   91  A    between atoms: _227  and  _230
REMARK   92  A    between atoms: _230  and  _231
REMARK   93  A    between atoms: _234  and  _236
REMARK   94  A    between atoms: _236  and  _237
REMARK   95  A    between atoms: _236  and  _239
REMARK   96  A    between atoms: _239  and  _240
REMARK   97  A    between atoms: _240  and  _241
REMARK   98  A    between atoms: _241  and  _242
REMARK                            x       y       z     vdW  Elec       q    Type
REMARK                         _______ _______ _______ _____ _____    ______ ____
ROOT
ATOM      1  CA  ASP A   1       4.407  -1.069   7.787  0.00  0.00    +0.144 C 
ENDROOT
BRANCH   1   2
ATOM      2  N   ASP A   1       4.512  -1.572   9.159  0.00  0.00    -0.239 NA
ATOM      3  H   ASP A   1       4.431  -2.592   9.344  0.00  0.00    +0.142 HD
ENDBRANCH   1   2
BRANCH   1   4
ATOM      4  C   ASP A   1       2.947  -0.658   7.581  0.00  0.00    +0.225 C 
ATOM      5  O   ASP A   1       2.148  -0.624   8.515  0.00  0.00    -0.287 OA
ENDBRANCH   1   4
BRANCH   1   6
ATOM      6  CB  ASP A   1       4.724  -2.198   6.795  0.00  0.00    +0.139 C 
BRANCH   6   7
ATOM      7  CG  ASP A   1       6.166  -2.735   6.954  0.00  0.00    +0.367 C 
ATOM      8  OD2 ASP A   1       7.052  -2.034   7.534  0.00  0.00    -0.246 OA
ATOM      9  OD1 ASP A   1       6.411  -3.872   6.492  0.00  0.00    -0.246 OA
ENDBRANCH   6   7
ENDBRANCH   1   6
TORSDOF 4
REMARK  Name = ../refined-set-2016/4mrg/4mrg_pocket.pdb
REMARK  98 active torsions:
REMARK  status: ('A' for Active; 'I' for Inactive)
REMARK    1  A    between atoms: _1  and  _3
REMARK    2  A    between atoms: _3  and  _4
REMARK    3  A    between atoms: _3  and  _6
REMARK    4  A    between atoms: _6  and  _7
REMARK    5  A    between atoms: _10  and  _12
REMARK    6  A    between atoms: _12  and  _13
REMARK    7  A    between atoms: _12  and  _15
REMARK    8  A    between atoms: _15  and  _16
REMARK    9  A    between atoms: _21  and  _23
REMARK   10  A    between atoms: _23  and  _24
REMARK   11  A    between atoms: _23  and  _26
REMARK   12  A    between atoms: _29  and  _31
REMARK   13  A    between atoms: _31  and  _32
REMARK   14  A    between atoms: _31  and  _34
REMARK   15  A    between atoms: _34  and  _35
REMARK   16  A    between atoms: _38  and  _40
REMARK   17  A    between atoms: _40  and  _41
REMARK   18  A    between atoms: _40  and  _43
REMARK   19  A    between atoms: _45  and  _47
REMARK   20  A    between atoms: _47  and  _48
REMARK   21  A    between atoms: _47  and  _50
REMARK   22  A    between atoms: _50  and  _51
REMARK   23  A    between atoms: _51  and  _52
REMARK   24  A    between atoms: _52  and  _53
REMARK   25  A    between atoms: _62  and  _64
REMARK   26  A    between atoms: _64  and  _65
REMARK   27  A    between atoms: _64  and  _67
REMARK   28  A    between atoms: _67  and  _68
REMARK   29  A    between atoms: _73  and  _75
REMARK   30  A    between atoms: _75  and  _76
REMARK   31  A    between atoms: _75  and  _78
REMARK   32  A    between atoms: _81  and  _83
REMARK   33  A    between atoms: _83  and  _84
REMARK   34  A    between atoms: _83  and  _86
REMARK   35  A    between atoms: _86  and  _87
REMARK   36  A    between atoms: _87  and  _88
REMARK   37  A    between atoms: _91  and  _93
REMARK   38  A    between atoms: _93  and  _94
REMARK   39  A    between atoms: _93  and  _96
REMARK   40  A    between atoms: _96  and  _97
REMARK   41  A    between atoms: _102  and  _104
REMARK   42  A    between atoms: _104  and  _105
REMARK   43  A    between atoms: _107  and  _109
REMARK   44  A    between atoms: _109  and  _110
REMARK   45  A    between atoms: _109  and  _112
REMARK   46  A    between atoms: _112  and  _113
REMARK   47  A    between atoms: _113  and  _114
REMARK   48  A    between atoms: _114  and  _115
REMARK   49  A    between atoms: _124  and  _126
REMARK   50  A    between atoms: _126  and  _127
REMARK   51  A    between atoms: _126  and  _129
REMARK   52  A    between atoms: _129  and  _130
REMARK   53  A    between atoms: _133  and  _135
REMARK   54  A    between atoms: _135  and  _136
REMARK   55  A    between atoms: _135  and  _138
REMARK   56  A    between atoms: _140  and  _142
REMARK   57  A    between atoms: _142  and  _143
REMARK   58  A    between atoms: _142  and  _145
REMARK   59  A    between atoms: _145  and  _146
REMARK   60  A    between atoms: _146  and  _147
REMARK   61  A    between atoms: _147  and  _148
REMARK   62  A    between atoms: _157  and  _159
REMARK   63  A    between atoms: _159  and  _160
REMARK   64  A    between atoms: _159  and  _162
REMARK   65  A    between atoms: _162  and  _163
REMARK   66  A    between atoms: _166  and  _168
REMARK   67  A    between atoms: _168  and  _169
REMARK   68  A    between atoms: _168  and  _171
REMARK   69  A    between atoms: _171  and  _172
REMARK   70  A    between atoms: _175  and  _177
REMARK   71  A    between atoms: _177  and  _178
REMARK   72  A    between atoms: _177  and  _180
REMARK   73  A    between atoms: _183  and  _185
REMARK   74  A    between atoms: _185  and  _186
REMARK   75  A    between atoms: _185  and  _188
REMARK   76  A    between atoms: _188  and  _189
REMARK   77  A    between atoms: _194  and  _196
REMARK   78  A    between atoms: _196  and  _197
REMARK   79  A    between atoms: _196  and  _199
REMARK   80  A    between atoms: _199  and  _200
REMARK   81  A    between atoms: _200  and  _201
REMARK   82  A    between atoms: _201  and  _202
REMARK   83  A    between atoms: _211  and  _213
REMARK   84  A    between atoms: _213  and  _214
REMARK   85  A    between atoms: _213  and  _216
REMARK   86  A    between atoms: _216  and  _217
REMARK   87  A    between atoms: _220  and  _222
REMARK   88  A    between atoms: _222  and  _223
REMARK   89  A    between atoms: _225  and  _227
REMARK   90  A    between atoms: _227  and  _228
REMARK   91  A    between atoms: _227  and  _230
REMARK   92  A    between atoms: _230  and  _231
REMARK   93  A    between atoms: _234  and  _236
REMARK   94  A    between atoms: _236  and  _237
REMARK   95  A    between atoms: _236  and  _239
REMARK   96  A    between atoms: _239  and  _240
REMARK   97  A    between atoms: _240  and  _241
REMARK   98  A    between atoms: _241  and  _242
REMARK                            x       y       z     vdW  Elec       q    Type
REMARK                         _______ _______ _______ _____ _____    ______ ____
ROOT
ATOM      1  CA  ARG A   4      10.800  -4.628  -5.906  0.00  0.00    +0.149 C 
ENDROOT
BRANCH   1   4
ATOM      2  C   ASN A   3      10.790  -2.255  -6.263  0.00  0.00    +0.241 C 
ATOM      3  O   ASN A   3      12.006  -2.187  -6.028  0.00  0.00    -0.273 OA
ATOM      4  N   ARG A   4      10.116  -3.397  -6.236  0.00  0.00    -0.297 N 
ATOM      5  H   ARG A   4       9.099  -3.407  -6.451  0.00  0.00    +0.150 HD
BRANCH   2   6
ATOM      6  CA  ASN A   3       9.991  -0.999  -6.544  0.00  0.00    +0.158 C 
BRANCH   6   9
ATOM      7  C   VAL A   2      10.654   0.627  -4.858  0.00  0.00    +0.241 C 
ATOM      8  O   VAL A   2       9.990   0.059  -3.975  0.00  0.00    -0.273 OA
ATOM      9  N   ASN A   3      10.697   0.211  -6.132  0.00  0.00    -0.297 N 
ATOM     10  H   ASN A   3      11.238   0.755  -6.833  0.00  0.00    +0.150 HD
BRANCH   7  11
ATOM     11  CA  VAL A   2      11.489   1.844  -4.514  0.00  0.00    +0.148 C 
BRANCH  11  13
ATOM     12  C   ILE A   1      10.505   4.054  -4.836  0.00  0.00    +0.238 C 
ATOM     13  N   VAL A   2      10.570   2.928  -4.120  0.00  0.00    -0.297 N 
ATOM     14  H   VAL A   2       9.968   2.815  -3.279  0.00  0.00    +0.150 HD
ATOM     15  O   ILE A   1      11.197   4.236  -5.846  0.00  0.00    -0.274 OA
BRANCH  12  16
ATOM     16  CA  ILE A   1       9.550   5.123  -4.355  0.00  0.00    +0.145 C 
BRANCH  16  17
ATOM     17  CB  ILE A   1       8.406   5.301  -5.407  0.00  0.00    +0.025 C 
ATOM     18  CG2 ILE A   1       7.678   3.967  -5.597  0.00  0.00    +0.002 C 
BRANCH  17  19
ATOM     19  CG1 ILE A   1       7.440   6.451  -5.020  0.00  0.00    +0.002 C 
ATOM     20  CD1 ILE A   1       7.051   6.499  -3.548  0.00  0.00    +0.000 C 
ENDBRANCH  17  19
ENDBRANCH  16  17
BRANCH  16  21
ATOM     21  N   ILE A   1      10.293   6.358  -4.146  0.00  0.00    -0.238 NA
ATOM     22  H   ILE A   1      10.184   7.132  -4.833  0.00  0.00    +0.142 HD
ENDBRANCH  16  21
ENDBRANCH  12  16
ENDBRANCH  11  13
BRANCH  11  23
ATOM     23  CB  VAL A   2      12.511   1.485  -3.397  0.00  0.00    +0.027 C 
ATOM     24  CG2 VAL A   2      13.231   2.769  -2.867  0.00  0.00    +0.002 C 
ATOM     25  CG1 VAL A   2      13.514   0.413  -3.916  0.00  0.00    +0.002 C 
ENDBRANCH  11  23
ENDBRANCH   7  11
ENDBRANCH   6   9
BRANCH   6  26
ATOM     26  CB  ASN A   3       9.635  -0.879  -8.020  0.00  0.00    +0.114 C 
BRANCH  26  27
ATOM     27  CG  ASN A   3       8.603   0.176  -8.234  0.00  0.00    +0.222 C 
ATOM     28  OD1 ASN A   3       7.392  -0.077  -8.055  0.00  0.00    -0.275 OA
ATOM     29  ND2 ASN A   3       9.054   1.395  -8.556  0.00  0.00    -0.329 N 
ATOM     30 HD21 ASN A   3       8.386   2.184  -8.668  0.00  0.00    +0.145 HD
ATOM     31 HD22 ASN A   3      10.073   1.553  -8.694  0.00  0.00    +0.145 HD
ENDBRANCH  26  27
ENDBRANCH   6  26
ENDBRANCH   2   6
ENDBRANCH   1   4
BRANCH   1  32
ATOM     32  C   ARG A   4      11.841  -5.004  -6.965  0.00  0.00    +0.241 C 
ATOM     33  O   ARG A   4      12.843  -5.614  -6.634  0.00  0.00    -0.273 OA
ATOM     34  N   ASP A   5      11.621  -4.589  -8.227  0.00  0.00    -0.297 N 
ATOM     35  H   ASP A   5      10.724  -4.122  -8.469  0.00  0.00    +0.150 HD
BRANCH  34  36
ATOM     36  CA  ASP A   5      12.652  -4.794  -9.276  0.00  0.00    +0.160 C 
BRANCH  36  37
ATOM     37  C   ASP A   5      13.751  -3.736  -9.318  0.00  0.00    +0.241 C 
ATOM     38  N   GLY A   6      13.735  -2.833  -8.329  0.00  0.00    -0.295 N 
ATOM     39  H   GLY A   6      12.927  -2.835  -7.674  0.00  0.00    +0.150 HD
ATOM     40  O   ASP A   5      14.619  -3.779 -10.203  0.00  0.00    -0.273 OA
BRANCH  38  41
ATOM     41  CA  GLY A   6      14.782  -1.854  -8.123  0.00  0.00    +0.176 C 
BRANCH  41  42
ATOM     42  C   GLY A   6      14.481  -0.539  -8.798  0.00  0.00    +0.243 C 
ATOM     43  O   GLY A   6      15.166   0.432  -8.542  0.00  0.00    -0.273 OA
ATOM     44  N   THR A   7      13.447  -0.503  -9.648  0.00  0.00    -0.295 N 
ATOM     45  H   THR A   7      12.898  -1.367  -9.833  0.00  0.00    +0.150 HD
BRANCH  44  46
ATOM     46  CA  THR A   7      13.088   0.744 -10.315  0.00  0.00    +0.176 C 
BRANCH  46  47
ATOM     47  C   THR A   7      12.775   1.821  -9.265  0.00  0.00    +0.243 C 
ATOM     48  O   THR A   7      12.048   1.556  -8.308  0.00  0.00    -0.273 OA
ATOM     49  N   ARG A   8      13.288   3.038  -9.463  0.00  0.00    -0.298 N 
ATOM     50  H   ARG A   8      13.840   3.222 -10.325  0.00  0.00    +0.150 HD
BRANCH  49  51
ATOM     51  CA  ARG A   8      13.092   4.126  -8.491  0.00  0.00    +0.137 C 
BRANCH  51  52
ATOM     52  C   ARG A   8      12.541   5.386  -9.128  0.00  0.00    +0.227 C 
ATOM     53  O   ARG A   8      12.841   5.695 -10.303  0.00  0.00    -0.286 OA
ENDBRANCH  51  52
BRANCH  51  54
ATOM     54  CB  ARG A   8      14.373   4.471  -7.718  0.00  0.00    +0.031 C 
BRANCH  54  55
ATOM     55  CG  ARG A   8      14.627   3.576  -6.486  0.00  0.00    +0.045 C 
BRANCH  55  56
ATOM     56  CD  ARG A   8      15.988   3.927  -5.812  0.00  0.00    +0.174 C 
BRANCH  56  57
ATOM     57  NE  ARG A   8      16.442   2.838  -4.948  0.00  0.00    -0.265 N 
ATOM     58  CZ  ARG A   8      16.793   2.953  -3.671  0.00  0.00    +0.342 C 
ATOM     59  NH2 ARG A   8      16.789   4.151  -3.020  0.00  0.00    -0.292 N 
ATOM     60 HH21 ARG A   8      17.070   4.200  -2.020  0.00  0.00    +0.255 HD
ATOM     61 HH22 ARG A   8      16.505   5.015  -3.523  0.00  0.00    +0.255 HD
ATOM     62  NH1 ARG A   8      17.175   1.843  -3.045  0.00  0.00    -0.292 N 
ATOM     63 HH11 ARG A   8      17.459   1.881  -2.045  0.00  0.00    +0.255 HD
ATOM     64 HH12 ARG A   8      17.190   0.937  -3.555  0.00  0.00    +0.255 HD
ATOM     65  HE  ARG A   8      16.495   1.889  -5.370  0.00  0.00    +0.259 HD
ENDBRANCH  56  57
ENDBRANCH  55  56
ENDBRANCH  54  55
ENDBRANCH  51  54
ENDBRANCH  49  51
ENDBRANCH  46  47
BRANCH  46  66
ATOM     66  CB  THR A   7      11.841   0.552 -11.243  0.00  0.00    +0.137 C 
ATOM     67  CG2 THR A   7      11.644   1.829 -12.065  0.00  0.00    +0.034 C 
BRANCH  66  68
ATOM     68  OG1 THR A   7      12.049  -0.533 -12.157  0.00  0.00    -0.382 OA
ATOM     69  HG1 THR A   7      12.200  -1.368 -11.647  0.00  0.00    +0.210 HD
ENDBRANCH  66  68
ENDBRANCH  46  66
ENDBRANCH  44  46
ENDBRANCH  41  42
ENDBRANCH  38  41
ENDBRANCH  36  37
BRANCH  36  70
ATOM     70  CB  ASP A   5      11.997  -4.933 -10.660  0.00  0.00    +0.143 C 
BRANCH  70  71
ATOM     71  CG  ASP A   5      11.394  -3.624 -11.176  0.00  0.00    +0.367 C 
ATOM     72  OD2 ASP A   5      11.519  -2.582 -10.475  0.00  0.00    -0.246 OA
ATOM     73  OD1 ASP A   5      10.746  -3.678 -12.272  0.00  0.00    -0.246 OA
ENDBRANCH  70  71
ENDBRANCH  36  70
ENDBRANCH  34  36
ENDBRANCH   1  32
BRANCH   1  74
ATOM     74  CB  ARG A   4       9.815  -5.771  -5.590  0.00  0.00    +0.033 C 
BRANCH  74  75
ATOM     75  CG  ARG A   4      10.459  -7.099  -5.238  0.00  0.00    +0.045 C 
BRANCH  75  76
ATOM     76  CD  ARG A   4      11.217  -7.074  -3.915  0.00  0.00    +0.174 C 
BRANCH  76  77
ATOM     77  NE  ARG A   4      12.540  -6.425  -4.028  0.00  0.00    -0.265 N 
ATOM     78  CZ  ARG A   4      13.500  -6.561  -3.110  0.00  0.00    +0.342 C 
ATOM     79  NH2 ARG A   4      13.292  -7.337  -2.058  0.00  0.00    -0.292 N 
ATOM     80 HH21 ARG A   4      14.035  -7.448  -1.339  0.00  0.00    +0.255 HD
ATOM     81 HH22 ARG A   4      12.386  -7.836  -1.951  0.00  0.00    +0.255 HD
ATOM     82  NH1 ARG A   4      14.651  -5.943  -3.248  0.00  0.00    -0.292 N 
ATOM     83 HH11 ARG A   4      15.392  -6.056  -2.527  0.00  0.00    +0.255 HD
ATOM     84 HH12 ARG A   4      14.822  -5.341  -4.078  0.00  0.00    +0.255 HD
ATOM     85  HE  ARG A   4      12.732  -5.834  -4.862  0.00  0.00    +0.259 HD
ENDBRANCH  76  77
ENDBRANCH  75  76
ENDBRANCH  74  75
ENDBRANCH   1  74
TORSDOF 33
REMARK  Name = ../refined-set-2016/4mrg/4mrg_pocket.pdb
REMARK  98 active torsions:
REMARK  status: ('A' for Active; 'I' for Inactive)
REMARK    1  A    between atoms: _1  and  _3
REMARK    2  A    between atoms: _3  and  _4
REMARK    3  A    between atoms: _3  and  _6
REMARK    4  A    between atoms: _6  and  _7
REMARK    5  A    between atoms: _10  and  _12
REMARK    6  A    between atoms: _12  and  _13
REMARK    7  A    between atoms: _12  and  _15
REMARK    8  A    between atoms: _15  and  _16
REMARK    9  A    between atoms: _21  and  _23
REMARK   10  A    between atoms: _23  and  _24
REMARK   11  A    between atoms: _23  and  _26
REMARK   12  A    between atoms: _29  and  _31
REMARK   13  A    between atoms: _31  and  _32
REMARK   14  A    between atoms: _31  and  _34
REMARK   15  A    between atoms: _34  and  _35
REMARK   16  A    between atoms: _38  and  _40
REMARK   17  A    between atoms: _40  and  _41
REMARK   18  A    between atoms: _40  and  _43
REMARK   19  A    between atoms: _45  and  _47
REMARK   20  A    between atoms: _47  and  _48
REMARK   21  A    between atoms: _47  and  _50
REMARK   22  A    between atoms: _50  and  _51
REMARK   23  A    between atoms: _51  and  _52
REMARK   24  A    between atoms: _52  and  _53
REMARK   25  A    between atoms: _62  and  _64
REMARK   26  A    between atoms: _64  and  _65
REMARK   27  A    between atoms: _64  and  _67
REMARK   28  A    between atoms: _67  and  _68
REMARK   29  A    between atoms: _73  and  _75
REMARK   30  A    between atoms: _75  and  _76
REMARK   31  A    between atoms: _75  and  _78
REMARK   32  A    between atoms: _81  and  _83
REMARK   33  A    between atoms: _83  and  _84
REMARK   34  A    between atoms: _83  and  _86
REMARK   35  A    between atoms: _86  and  _87
REMARK   36  A    between atoms: _87  and  _88
REMARK   37  A    between atoms: _91  and  _93
REMARK   38  A    between atoms: _93  and  _94
REMARK   39  A    between atoms: _93  and  _96
REMARK   40  A    between atoms: _96  and  _97
REMARK   41  A    between atoms: _102  and  _104
REMARK   42  A    between atoms: _104  and  _105
REMARK   43  A    between atoms: _107  and  _109
REMARK   44  A    between atoms: _109  and  _110
REMARK   45  A    between atoms: _109  and  _112
REMARK   46  A    between atoms: _112  and  _113
REMARK   47  A    between atoms: _113  and  _114
REMARK   48  A    between atoms: _114  and  _115
REMARK   49  A    between atoms: _124  and  _126
REMARK   50  A    between atoms: _126  and  _127
REMARK   51  A    between atoms: _126  and  _129
REMARK   52  A    between atoms: _129  and  _130
REMARK   53  A    between atoms: _133  and  _135
REMARK   54  A    between atoms: _135  and  _136
REMARK   55  A    between atoms: _135  and  _138
REMARK   56  A    between atoms: _140  and  _142
REMARK   57  A    between atoms: _142  and  _143
REMARK   58  A    between atoms: _142  and  _145
REMARK   59  A    between atoms: _145  and  _146
REMARK   60  A    between atoms: _146  and  _147
REMARK   61  A    between atoms: _147  and  _148
REMARK   62  A    between atoms: _157  and  _159
REMARK   63  A    between atoms: _159  and  _160
REMARK   64  A    between atoms: _159  and  _162
REMARK   65  A    between atoms: _162  and  _163
REMARK   66  A    between atoms: _166  and  _168
REMARK   67  A    between atoms: _168  and  _169
REMARK   68  A    between atoms: _168  and  _171
REMARK   69  A    between atoms: _171  and  _172
REMARK   70  A    between atoms: _175  and  _177
REMARK   71  A    between atoms: _177  and  _178
REMARK   72  A    between atoms: _177  and  _180
REMARK   73  A    between atoms: _183  and  _185
REMARK   74  A    between atoms: _185  and  _186
REMARK   75  A    between atoms: _185  and  _188
REMARK   76  A    between atoms: _188  and  _189
REMARK   77  A    between atoms: _194  and  _196
REMARK   78  A    between atoms: _196  and  _197
REMARK   79  A    between atoms: _196  and  _199
REMARK   80  A    between atoms: _199  and  _200
REMARK   81  A    between atoms: _200  and  _201
REMARK   82  A    between atoms: _201  and  _202
REMARK   83  A    between atoms: _211  and  _213
REMARK   84  A    between atoms: _213  and  _214
REMARK   85  A    between atoms: _213  and  _216
REMARK   86  A    between atoms: _216  and  _217
REMARK   87  A    between atoms: _220  and  _222
REMARK   88  A    between atoms: _222  and  _223
REMARK   89  A    between atoms: _225  and  _227
REMARK   90  A    between atoms: _227  and  _228
REMARK   91  A    between atoms: _227  and  _230
REMARK   92  A    between atoms: _230  and  _231
REMARK   93  A    between atoms: _234  and  _236
REMARK   94  A    between atoms: _236  and  _237
REMARK   95  A    between atoms: _236  and  _239
REMARK   96  A    between atoms: _239  and  _240
REMARK   97  A    between atoms: _240  and  _241
REMARK   98  A    between atoms: _241  and  _242
REMARK                            x       y       z     vdW  Elec       q    Type
REMARK                         _______ _______ _______ _____ _____    ______ ____
ROOT
ATOM      1  O   HOH     1       6.875  -3.327   0.389  0.00  0.00    +0.000 OA
ENDROOT
TORSDOF 0
REMARK  Name = ../refined-set-2016/4mrg/4mrg_pocket.pdb
REMARK  98 active torsions:
REMARK  status: ('A' for Active; 'I' for Inactive)
REMARK    1  A    between atoms: _1  and  _3
REMARK    2  A    between atoms: _3  and  _4
REMARK    3  A    between atoms: _3  and  _6
REMARK    4  A    between atoms: _6  and  _7
REMARK    5  A    between atoms: _10  and  _12
REMARK    6  A    between atoms: _12  and  _13
REMARK    7  A    between atoms: _12  and  _15
REMARK    8  A    between atoms: _15  and  _16
REMARK    9  A    between atoms: _21  and  _23
REMARK   10  A    between atoms: _23  and  _24
REMARK   11  A    between atoms: _23  and  _26
REMARK   12  A    between atoms: _29  and  _31
REMARK   13  A    between atoms: _31  and  _32
REMARK   14  A    between atoms: _31  and  _34
REMARK   15  A    between atoms: _34  and  _35
REMARK   16  A    between atoms: _38  and  _40
REMARK   17  A    between atoms: _40  and  _41
REMARK   18  A    between atoms: _40  and  _43
REMARK   19  A    between atoms: _45  and  _47
REMARK   20  A    between atoms: _47  and  _48
REMARK   21  A    between atoms: _47  and  _50
REMARK   22  A    between atoms: _50  and  _51
REMARK   23  A    between atoms: _51  and  _52
REMARK   24  A    between atoms: _52  and  _53
REMARK   25  A    between atoms: _62  and  _64
REMARK   26  A    between atoms: _64  and  _65
REMARK   27  A    between atoms: _64  and  _67
REMARK   28  A    between atoms: _67  and  _68
REMARK   29  A    between atoms: _73  and  _75
REMARK   30  A    between atoms: _75  and  _76
REMARK   31  A    between atoms: _75  and  _78
REMARK   32  A    between atoms: _81  and  _83
REMARK   33  A    between atoms: _83  and  _84
REMARK   34  A    between atoms: _83  and  _86
REMARK   35  A    between atoms: _86  and  _87
REMARK   36  A    between atoms: _87  and  _88
REMARK   37  A    between atoms: _91  and  _93
REMARK   38  A    between atoms: _93  and  _94
REMARK   39  A    between atoms: _93  and  _96
REMARK   40  A    between atoms: _96  and  _97
REMARK   41  A    between atoms: _102  and  _104
REMARK   42  A    between atoms: _104  and  _105
REMARK   43  A    between atoms: _107  and  _109
REMARK   44  A    between atoms: _109  and  _110
REMARK   45  A    between atoms: _109  and  _112
REMARK   46  A    between atoms: _112  and  _113
REMARK   47  A    between atoms: _113  and  _114
REMARK   48  A    between atoms: _114  and  _115
REMARK   49  A    between atoms: _124  and  _126
REMARK   50  A    between atoms: _126  and  _127
REMARK   51  A    between atoms: _126  and  _129
REMARK   52  A    between atoms: _129  and  _130
REMARK   53  A    between atoms: _133  and  _135
REMARK   54  A    between atoms: _135  and  _136
REMARK   55  A    between atoms: _135  and  _138
REMARK   56  A    between atoms: _140  and  _142
REMARK   57  A    between atoms: _142  and  _143
REMARK   58  A    between atoms: _142  and  _145
REMARK   59  A    between atoms: _145  and  _146
REMARK   60  A    between atoms: _146  and  _147
REMARK   61  A    between atoms: _147  and  _148
REMARK   62  A    between atoms: _157  and  _159
REMARK   63  A    between atoms: _159  and  _160
REMARK   64  A    between atoms: _159  and  _162
REMARK   65  A    between atoms: _162  and  _163
REMARK   66  A    between atoms: _166  and  _168
REMARK   67  A    between atoms: _168  and  _169
REMARK   68  A    between atoms: _168  and  _171
REMARK   69  A    between atoms: _171  and  _172
REMARK   70  A    between atoms: _175  and  _177
REMARK   71  A    between atoms: _177  and  _178
REMARK   72  A    between atoms: _177  and  _180
REMARK   73  A    between atoms: _183  and  _185
REMARK   74  A    between atoms: _185  and  _186
REMARK   75  A    between atoms: _185  and  _188
REMARK   76  A    between atoms: _188  and  _189
REMARK   77  A    between atoms: _194  and  _196
REMARK   78  A    between atoms: _196  and  _197
REMARK   79  A    between atoms: _196  and  _199
REMARK   80  A    between atoms: _199  and  _200
REMARK   81  A    between atoms: _200  and  _201
REMARK   82  A    between atoms: _201  and  _202
REMARK   83  A    between atoms: _211  and  _213
REMARK   84  A    between atoms: _213  and  _214
REMARK   85  A    between atoms: _213  and  _216
REMARK   86  A    between atoms: _216  and  _217
REMARK   87  A    between atoms: _220  and  _222
REMARK   88  A    between atoms: _222  and  _223
REMARK   89  A    between atoms: _225  and  _227
REMARK   90  A    between atoms: _227  and  _228
REMARK   91  A    between atoms: _227  and  _230
REMARK   92  A    between atoms: _230  and  _231
REMARK   93  A    between atoms: _234  and  _236
REMARK   94  A    between atoms: _236  and  _237
REMARK   95  A    between atoms: _236  and  _239
REMARK   96  A    between atoms: _239  and  _240
REMARK   97  A    between atoms: _240  and  _241
REMARK   98  A    between atoms: _241  and  _242
REMARK                            x       y       z     vdW  Elec       q    Type
REMARK                         _______ _______ _______ _____ _____    ______ ____
ROOT
ATOM      1  O   HOH     1      14.400  -3.131  -4.797  0.00  0.00    +0.000 OA
ENDROOT
TORSDOF 0
REMARK  Name = ../refined-set-2016/4mrg/4mrg_pocket.pdb
REMARK  98 active torsions:
REMARK  status: ('A' for Active; 'I' for Inactive)
REMARK    1  A    between atoms: _1  and  _3
REMARK    2  A    between atoms: _3  and  _4
REMARK    3  A    between atoms: _3  and  _6
REMARK    4  A    between atoms: _6  and  _7
REMARK    5  A    between atoms: _10  and  _12
REMARK    6  A    between atoms: _12  and  _13
REMARK    7  A    between atoms: _12  and  _15
REMARK    8  A    between atoms: _15  and  _16
REMARK    9  A    between atoms: _21  and  _23
REMARK   10  A    between atoms: _23  and  _24
REMARK   11  A    between atoms: _23  and  _26
REMARK   12  A    between atoms: _29  and  _31
REMARK   13  A    between atoms: _31  and  _32
REMARK   14  A    between atoms: _31  and  _34
REMARK   15  A    between atoms: _34  and  _35
REMARK   16  A    between atoms: _38  and  _40
REMARK   17  A    between atoms: _40  and  _41
REMARK   18  A    between atoms: _40  and  _43
REMARK   19  A    between atoms: _45  and  _47
REMARK   20  A    between atoms: _47  and  _48
REMARK   21  A    between atoms: _47  and  _50
REMARK   22  A    between atoms: _50  and  _51
REMARK   23  A    between atoms: _51  and  _52
REMARK   24  A    between atoms: _52  and  _53
REMARK   25  A    between atoms: _62  and  _64
REMARK   26  A    between atoms: _64  and  _65
REMARK   27  A    between atoms: _64  and  _67
REMARK   28  A    between atoms: _67  and  _68
REMARK   29  A    between atoms: _73  and  _75
REMARK   30  A    between atoms: _75  and  _76
REMARK   31  A    between atoms: _75  and  _78
REMARK   32  A    between atoms: _81  and  _83
REMARK   33  A    between atoms: _83  and  _84
REMARK   34  A    between atoms: _83  and  _86
REMARK   35  A    between atoms: _86  and  _87
REMARK   36  A    between atoms: _87  and  _88
REMARK   37  A    between atoms: _91  and  _93
REMARK   38  A    between atoms: _93  and  _94
REMARK   39  A    between atoms: _93  and  _96
REMARK   40  A    between atoms: _96  and  _97
REMARK   41  A    between atoms: _102  and  _104
REMARK   42  A    between atoms: _104  and  _105
REMARK   43  A    between atoms: _107  and  _109
REMARK   44  A    between atoms: _109  and  _110
REMARK   45  A    between atoms: _109  and  _112
REMARK   46  A    between atoms: _112  and  _113
REMARK   47  A    between atoms: _113  and  _114
REMARK   48  A    between atoms: _114  and  _115
REMARK   49  A    between atoms: _124  and  _126
REMARK   50  A    between atoms: _126  and  _127
REMARK   51  A    between atoms: _126  and  _129
REMARK   52  A    between atoms: _129  and  _130
REMARK   53  A    between atoms: _133  and  _135
REMARK   54  A    between atoms: _135  and  _136
REMARK   55  A    between atoms: _135  and  _138
REMARK   56  A    between atoms: _140  and  _142
REMARK   57  A    between atoms: _142  and  _143
REMARK   58  A    between atoms: _142  and  _145
REMARK   59  A    between atoms: _145  and  _146
REMARK   60  A    between atoms: _146  and  _147
REMARK   61  A    between atoms: _147  and  _148
REMARK   62  A    between atoms: _157  and  _159
REMARK   63  A    between atoms: _159  and  _160
REMARK   64  A    between atoms: _159  and  _162
REMARK   65  A    between atoms: _162  and  _163
REMARK   66  A    between atoms: _166  and  _168
REMARK   67  A    between atoms: _168  and  _169
REMARK   68  A    between atoms: _168  and  _171
REMARK   69  A    between atoms: _171  and  _172
REMARK   70  A    between atoms: _175  and  _177
REMARK   71  A    between atoms: _177  and  _178
REMARK   72  A    between atoms: _177  and  _180
REMARK   73  A    between atoms: _183  and  _185
REMARK   74  A    between atoms: _185  and  _186
REMARK   75  A    between atoms: _185  and  _188
REMARK   76  A    between atoms: _188  and  _189
REMARK   77  A    between atoms: _194  and  _196
REMARK   78  A    between atoms: _196  and  _197
REMARK   79  A    between atoms: _196  and  _199
REMARK   80  A    between atoms: _199  and  _200
REMARK   81  A    between atoms: _200  and  _201
REMARK   82  A    between atoms: _201  and  _202
REMARK   83  A    between atoms: _211  and  _213
REMARK   84  A    between atoms: _213  and  _214
REMARK   85  A    between atoms: _213  and  _216
REMARK   86  A    between atoms: _216  and  _217
REMARK   87  A    between atoms: _220  and  _222
REMARK   88  A    between atoms: _222  and  _223
REMARK   89  A    between atoms: _225  and  _227
REMARK   90  A    between atoms: _227  and  _228
REMARK   91  A    between atoms: _227  and  _230
REMARK   92  A    between atoms: _230  and  _231
REMARK   93  A    between atoms: _234  and  _236
REMARK   94  A    between atoms: _236  and  _237
REMARK   95  A    between atoms: _236  and  _239
REMARK   96  A    between atoms: _239  and  _240
REMARK   97  A    between atoms: _240  and  _241
REMARK   98  A    between atoms: _241  and  _242
REMARK                            x       y       z     vdW  Elec       q    Type
REMARK                         _______ _______ _______ _____ _____    ______ ____
ROOT
ATOM      1  O   HOH     1      14.627  -0.548   2.274  0.00  0.00    +0.000 OA
ENDROOT
TORSDOF 0
REMARK  Name = ../refined-set-2016/4mrg/4mrg_pocket.pdb
REMARK  98 active torsions:
REMARK  status: ('A' for Active; 'I' for Inactive)
REMARK    1  A    between atoms: _1  and  _3
REMARK    2  A    between atoms: _3  and  _4
REMARK    3  A    between atoms: _3  and  _6
REMARK    4  A    between atoms: _6  and  _7
REMARK    5  A    between atoms: _10  and  _12
REMARK    6  A    between atoms: _12  and  _13
REMARK    7  A    between atoms: _12  and  _15
REMARK    8  A    between atoms: _15  and  _16
REMARK    9  A    between atoms: _21  and  _23
REMARK   10  A    between atoms: _23  and  _24
REMARK   11  A    between atoms: _23  and  _26
REMARK   12  A    between atoms: _29  and  _31
REMARK   13  A    between atoms: _31  and  _32
REMARK   14  A    between atoms: _31  and  _34
REMARK   15  A    between atoms: _34  and  _35
REMARK   16  A    between atoms: _38  and  _40
REMARK   17  A    between atoms: _40  and  _41
REMARK   18  A    between atoms: _40  and  _43
REMARK   19  A    between atoms: _45  and  _47
REMARK   20  A    between atoms: _47  and  _48
REMARK   21  A    between atoms: _47  and  _50
REMARK   22  A    between atoms: _50  and  _51
REMARK   23  A    between atoms: _51  and  _52
REMARK   24  A    between atoms: _52  and  _53
REMARK   25  A    between atoms: _62  and  _64
REMARK   26  A    between atoms: _64  and  _65
REMARK   27  A    between atoms: _64  and  _67
REMARK   28  A    between atoms: _67  and  _68
REMARK   29  A    between atoms: _73  and  _75
REMARK   30  A    between atoms: _75  and  _76
REMARK   31  A    between atoms: _75  and  _78
REMARK   32  A    between atoms: _81  and  _83
REMARK   33  A    between atoms: _83  and  _84
REMARK   34  A    between atoms: _83  and  _86
REMARK   35  A    between atoms: _86  and  _87
REMARK   36  A    between atoms: _87  and  _88
REMARK   37  A    between atoms: _91  and  _93
REMARK   38  A    between atoms: _93  and  _94
REMARK   39  A    between atoms: _93  and  _96
REMARK   40  A    between atoms: _96  and  _97
REMARK   41  A    between atoms: _102  and  _104
REMARK   42  A    between atoms: _104  and  _105
REMARK   43  A    between atoms: _107  and  _109
REMARK   44  A    between atoms: _109  and  _110
REMARK   45  A    between atoms: _109  and  _112
REMARK   46  A    between atoms: _112  and  _113
REMARK   47  A    between atoms: _113  and  _114
REMARK   48  A    between atoms: _114  and  _115
REMARK   49  A    between atoms: _124  and  _126
REMARK   50  A    between atoms: _126  and  _127
REMARK   51  A    between atoms: _126  and  _129
REMARK   52  A    between atoms: _129  and  _130
REMARK   53  A    between atoms: _133  and  _135
REMARK   54  A    between atoms: _135  and  _136
REMARK   55  A    between atoms: _135  and  _138
REMARK   56  A    between atoms: _140  and  _142
REMARK   57  A    between atoms: _142  and  _143
REMARK   58  A    between atoms: _142  and  _145
REMARK   59  A    between atoms: _145  and  _146
REMARK   60  A    between atoms: _146  and  _147
REMARK   61  A    between atoms: _147  and  _148
REMARK   62  A    between atoms: _157  and  _159
REMARK   63  A    between atoms: _159  and  _160
REMARK   64  A    between atoms: _159  and  _162
REMARK   65  A    between atoms: _162  and  _163
REMARK   66  A    between atoms: _166  and  _168
REMARK   67  A    between atoms: _168  and  _169
REMARK   68  A    between atoms: _168  and  _171
REMARK   69  A    between atoms: _171  and  _172
REMARK   70  A    between atoms: _175  and  _177
REMARK   71  A    between atoms: _177  and  _178
REMARK   72  A    between atoms: _177  and  _180
REMARK   73  A    between atoms: _183  and  _185
REMARK   74  A    between atoms: _185  and  _186
REMARK   75  A    between atoms: _185  and  _188
REMARK   76  A    between atoms: _188  and  _189
REMARK   77  A    between atoms: _194  and  _196
REMARK   78  A    between atoms: _196  and  _197
REMARK   79  A    between atoms: _196  and  _199
REMARK   80  A    between atoms: _199  and  _200
REMARK   81  A    between atoms: _200  and  _201
REMARK   82  A    between atoms: _201  and  _202
REMARK   83  A    between atoms: _211  and  _213
REMARK   84  A    between atoms: _213  and  _214
REMARK   85  A    between atoms: _213  and  _216
REMARK   86  A    between atoms: _216  and  _217
REMARK   87  A    between atoms: _220  and  _222
REMARK   88  A    between atoms: _222  and  _223
REMARK   89  A    between atoms: _225  and  _227
REMARK   90  A    between atoms: _227  and  _228
REMARK   91  A    between atoms: _227  and  _230
REMARK   92  A    between atoms: _230  and  _231
REMARK   93  A    between atoms: _234  and  _236
REMARK   94  A    between atoms: _236  and  _237
REMARK   95  A    between atoms: _236  and  _239
REMARK   96  A    between atoms: _239  and  _240
REMARK   97  A    between atoms: _240  and  _241
REMARK   98  A    between atoms: _241  and  _242
REMARK                            x       y       z     vdW  Elec       q    Type
REMARK                         _______ _______ _______ _____ _____    ______ ____
ROOT
ATOM      1  O   HOH     1       7.737  -6.925  -3.028  0.00  0.00    +0.000 OA
ENDROOT
TORSDOF 0
REMARK  Name = ../refined-set-2016/4mrg/4mrg_pocket.pdb
REMARK  98 active torsions:
REMARK  status: ('A' for Active; 'I' for Inactive)
REMARK    1  A    between atoms: _1  and  _3
REMARK    2  A    between atoms: _3  and  _4
REMARK    3  A    between atoms: _3  and  _6
REMARK    4  A    between atoms: _6  and  _7
REMARK    5  A    between atoms: _10  and  _12
REMARK    6  A    between atoms: _12  and  _13
REMARK    7  A    between atoms: _12  and  _15
REMARK    8  A    between atoms: _15  and  _16
REMARK    9  A    between atoms: _21  and  _23
REMARK   10  A    between atoms: _23  and  _24
REMARK   11  A    between atoms: _23  and  _26
REMARK   12  A    between atoms: _29  and  _31
REMARK   13  A    between atoms: _31  and  _32
REMARK   14  A    between atoms: _31  and  _34
REMARK   15  A    between atoms: _34  and  _35
REMARK   16  A    between atoms: _38  and  _40
REMARK   17  A    between atoms: _40  and  _41
REMARK   18  A    between atoms: _40  and  _43
REMARK   19  A    between atoms: _45  and  _47
REMARK   20  A    between atoms: _47  and  _48
REMARK   21  A    between atoms: _47  and  _50
REMARK   22  A    between atoms: _50  and  _51
REMARK   23  A    between atoms: _51  and  _52
REMARK   24  A    between atoms: _52  and  _53
REMARK   25  A    between atoms: _62  and  _64
REMARK   26  A    between atoms: _64  and  _65
REMARK   27  A    between atoms: _64  and  _67
REMARK   28  A    between atoms: _67  and  _68
REMARK   29  A    between atoms: _73  and  _75
REMARK   30  A    between atoms: _75  and  _76
REMARK   31  A    between atoms: _75  and  _78
REMARK   32  A    between atoms: _81  and  _83
REMARK   33  A    between atoms: _83  and  _84
REMARK   34  A    between atoms: _83  and  _86
REMARK   35  A    between atoms: _86  and  _87
REMARK   36  A    between atoms: _87  and  _88
REMARK   37  A    between atoms: _91  and  _93
REMARK   38  A    between atoms: _93  and  _94
REMARK   39  A    between atoms: _93  and  _96
REMARK   40  A    between atoms: _96  and  _97
REMARK   41  A    between atoms: _102  and  _104
REMARK   42  A    between atoms: _104  and  _105
REMARK   43  A    between atoms: _107  and  _109
REMARK   44  A    between atoms: _109  and  _110
REMARK   45  A    between atoms: _109  and  _112
REMARK   46  A    between atoms: _112  and  _113
REMARK   47  A    between atoms: _113  and  _114
REMARK   48  A    between atoms: _114  and  _115
REMARK   49  A    between atoms: _124  and  _126
REMARK   50  A    between atoms: _126  and  _127
REMARK   51  A    between atoms: _126  and  _129
REMARK   52  A    between atoms: _129  and  _130
REMARK   53  A    between atoms: _133  and  _135
REMARK   54  A    between atoms: _135  and  _136
REMARK   55  A    between atoms: _135  and  _138
REMARK   56  A    between atoms: _140  and  _142
REMARK   57  A    between atoms: _142  and  _143
REMARK   58  A    between atoms: _142  and  _145
REMARK   59  A    between atoms: _145  and  _146
REMARK   60  A    between atoms: _146  and  _147
REMARK   61  A    between atoms: _147  and  _148
REMARK   62  A    between atoms: _157  and  _159
REMARK   63  A    between atoms: _159  and  _160
REMARK   64  A    between atoms: _159  and  _162
REMARK   65  A    between atoms: _162  and  _163
REMARK   66  A    between atoms: _166  and  _168
REMARK   67  A    between atoms: _168  and  _169
REMARK   68  A    between atoms: _168  and  _171
REMARK   69  A    between atoms: _171  and  _172
REMARK   70  A    between atoms: _175  and  _177
REMARK   71  A    between atoms: _177  and  _178
REMARK   72  A    between atoms: _177  and  _180
REMARK   73  A    between atoms: _183  and  _185
REMARK   74  A    between atoms: _185  and  _186
REMARK   75  A    between atoms: _185  and  _188
REMARK   76  A    between atoms: _188  and  _189
REMARK   77  A    between atoms: _194  and  _196
REMARK   78  A    between atoms: _196  and  _197
REMARK   79  A    between atoms: _196  and  _199
REMARK   80  A    between atoms: _199  and  _200
REMARK   81  A    between atoms: _200  and  _201
REMARK   82  A    between atoms: _201  and  _202
REMARK   83  A    between atoms: _211  and  _213
REMARK   84  A    between atoms: _213  and  _214
REMARK   85  A    between atoms: _213  and  _216
REMARK   86  A    between atoms: _216  and  _217
REMARK   87  A    between atoms: _220  and  _222
REMARK   88  A    between atoms: _222  and  _223
REMARK   89  A    between atoms: _225  and  _227
REMARK   90  A    between atoms: _227  and  _228
REMARK   91  A    between atoms: _227  and  _230
REMARK   92  A    between atoms: _230  and  _231
REMARK   93  A    between atoms: _234  and  _236
REMARK   94  A    between atoms: _236  and  _237
REMARK   95  A    between atoms: _236  and  _239
REMARK   96  A    between atoms: _239  and  _240
REMARK   97  A    between atoms: _240  and  _241
REMARK   98  A    between atoms: _241  and  _242
REMARK                            x       y       z     vdW  Elec       q    Type
REMARK                         _______ _______ _______ _____ _____    ______ ____
ROOT
ATOM      1  O   HOH     1       5.910  -7.066  -5.046  0.00  0.00    +0.000 OA
ENDROOT
TORSDOF 0
REMARK  Name = ../refined-set-2016/4mrg/4mrg_pocket.pdb
REMARK  98 active torsions:
REMARK  status: ('A' for Active; 'I' for Inactive)
REMARK    1  A    between atoms: _1  and  _3
REMARK    2  A    between atoms: _3  and  _4
REMARK    3  A    between atoms: _3  and  _6
REMARK    4  A    between atoms: _6  and  _7
REMARK    5  A    between atoms: _10  and  _12
REMARK    6  A    between atoms: _12  and  _13
REMARK    7  A    between atoms: _12  and  _15
REMARK    8  A    between atoms: _15  and  _16
REMARK    9  A    between atoms: _21  and  _23
REMARK   10  A    between atoms: _23  and  _24
REMARK   11  A    between atoms: _23  and  _26
REMARK   12  A    between atoms: _29  and  _31
REMARK   13  A    between atoms: _31  and  _32
REMARK   14  A    between atoms: _31  and  _34
REMARK   15  A    between atoms: _34  and  _35
REMARK   16  A    between atoms: _38  and  _40
REMARK   17  A    between atoms: _40  and  _41
REMARK   18  A    between atoms: _40  and  _43
REMARK   19  A    between atoms: _45  and  _47
REMARK   20  A    between atoms: _47  and  _48
REMARK   21  A    between atoms: _47  and  _50
REMARK   22  A    between atoms: _50  and  _51
REMARK   23  A    between atoms: _51  and  _52
REMARK   24  A    between atoms: _52  and  _53
REMARK   25  A    between atoms: _62  and  _64
REMARK   26  A    between atoms: _64  and  _65
REMARK   27  A    between atoms: _64  and  _67
REMARK   28  A    between atoms: _67  and  _68
REMARK   29  A    between atoms: _73  and  _75
REMARK   30  A    between atoms: _75  and  _76
REMARK   31  A    between atoms: _75  and  _78
REMARK   32  A    between atoms: _81  and  _83
REMARK   33  A    between atoms: _83  and  _84
REMARK   34  A    between atoms: _83  and  _86
REMARK   35  A    between atoms: _86  and  _87
REMARK   36  A    between atoms: _87  and  _88
REMARK   37  A    between atoms: _91  and  _93
REMARK   38  A    between atoms: _93  and  _94
REMARK   39  A    between atoms: _93  and  _96
REMARK   40  A    between atoms: _96  and  _97
REMARK   41  A    between atoms: _102  and  _104
REMARK   42  A    between atoms: _104  and  _105
REMARK   43  A    between atoms: _107  and  _109
REMARK   44  A    between atoms: _109  and  _110
REMARK   45  A    between atoms: _109  and  _112
REMARK   46  A    between atoms: _112  and  _113
REMARK   47  A    between atoms: _113  and  _114
REMARK   48  A    between atoms: _114  and  _115
REMARK   49  A    between atoms: _124  and  _126
REMARK   50  A    between atoms: _126  and  _127
REMARK   51  A    between atoms: _126  and  _129
REMARK   52  A    between atoms: _129  and  _130
REMARK   53  A    between atoms: _133  and  _135
REMARK   54  A    between atoms: _135  and  _136
REMARK   55  A    between atoms: _135  and  _138
REMARK   56  A    between atoms: _140  and  _142
REMARK   57  A    between atoms: _142  and  _143
REMARK   58  A    between atoms: _142  and  _145
REMARK   59  A    between atoms: _145  and  _146
REMARK   60  A    between atoms: _146  and  _147
REMARK   61  A    between atoms: _147  and  _148
REMARK   62  A    between atoms: _157  and  _159
REMARK   63  A    between atoms: _159  and  _160
REMARK   64  A    between atoms: _159  and  _162
REMARK   65  A    between atoms: _162  and  _163
REMARK   66  A    between atoms: _166  and  _168
REMARK   67  A    between atoms: _168  and  _169
REMARK   68  A    between atoms: _168  and  _171
REMARK   69  A    between atoms: _171  and  _172
REMARK   70  A    between atoms: _175  and  _177
REMARK   71  A    between atoms: _177  and  _178
REMARK   72  A    between atoms: _177  and  _180
REMARK   73  A    between atoms: _183  and  _185
REMARK   74  A    between atoms: _185  and  _186
REMARK   75  A    between atoms: _185  and  _188
REMARK   76  A    between atoms: _188  and  _189
REMARK   77  A    between atoms: _194  and  _196
REMARK   78  A    between atoms: _196  and  _197
REMARK   79  A    between atoms: _196  and  _199
REMARK   80  A    between atoms: _199  and  _200
REMARK   81  A    between atoms: _200  and  _201
REMARK   82  A    between atoms: _201  and  _202
REMARK   83  A    between atoms: _211  and  _213
REMARK   84  A    between atoms: _213  and  _214
REMARK   85  A    between atoms: _213  and  _216
REMARK   86  A    between atoms: _216  and  _217
REMARK   87  A    between atoms: _220  and  _222
REMARK   88  A    between atoms: _222  and  _223
REMARK   89  A    between atoms: _225  and  _227
REMARK   90  A    between atoms: _227  and  _228
REMARK   91  A    between atoms: _227  and  _230
REMARK   92  A    between atoms: _230  and  _231
REMARK   93  A    between atoms: _234  and  _236
REMARK   94  A    between atoms: _236  and  _237
REMARK   95  A    between atoms: _236  and  _239
REMARK   96  A    between atoms: _239  and  _240
REMARK   97  A    between atoms: _240  and  _241
REMARK   98  A    between atoms: _241  and  _242
REMARK                            x       y       z     vdW  Elec       q    Type
REMARK                         _______ _______ _______ _____ _____    ______ ____
ROOT
ATOM      1  O   HOH     1       7.354  -8.509  -6.969  0.00  0.00    +0.000 OA
ENDROOT
TORSDOF 0
REMARK  Name = ../refined-set-2016/4mrg/4mrg_pocket.pdb
REMARK  98 active torsions:
REMARK  status: ('A' for Active; 'I' for Inactive)
REMARK    1  A    between atoms: _1  and  _3
REMARK    2  A    between atoms: _3  and  _4
REMARK    3  A    between atoms: _3  and  _6
REMARK    4  A    between atoms: _6  and  _7
REMARK    5  A    between atoms: _10  and  _12
REMARK    6  A    between atoms: _12  and  _13
REMARK    7  A    between atoms: _12  and  _15
REMARK    8  A    between atoms: _15  and  _16
REMARK    9  A    between atoms: _21  and  _23
REMARK   10  A    between atoms: _23  and  _24
REMARK   11  A    between atoms: _23  and  _26
REMARK   12  A    between atoms: _29  and  _31
REMARK   13  A    between atoms: _31  and  _32
REMARK   14  A    between atoms: _31  and  _34
REMARK   15  A    between atoms: _34  and  _35
REMARK   16  A    between atoms: _38  and  _40
REMARK   17  A    between atoms: _40  and  _41
REMARK   18  A    between atoms: _40  and  _43
REMARK   19  A    between atoms: _45  and  _47
REMARK   20  A    between atoms: _47  and  _48
REMARK   21  A    between atoms: _47  and  _50
REMARK   22  A    between atoms: _50  and  _51
REMARK   23  A    between atoms: _51  and  _52
REMARK   24  A    between atoms: _52  and  _53
REMARK   25  A    between atoms: _62  and  _64
REMARK   26  A    between atoms: _64  and  _65
REMARK   27  A    between atoms: _64  and  _67
REMARK   28  A    between atoms: _67  and  _68
REMARK   29  A    between atoms: _73  and  _75
REMARK   30  A    between atoms: _75  and  _76
REMARK   31  A    between atoms: _75  and  _78
REMARK   32  A    between atoms: _81  and  _83
REMARK   33  A    between atoms: _83  and  _84
REMARK   34  A    between atoms: _83  and  _86
REMARK   35  A    between atoms: _86  and  _87
REMARK   36  A    between atoms: _87  and  _88
REMARK   37  A    between atoms: _91  and  _93
REMARK   38  A    between atoms: _93  and  _94
REMARK   39  A    between atoms: _93  and  _96
REMARK   40  A    between atoms: _96  and  _97
REMARK   41  A    between atoms: _102  and  _104
REMARK   42  A    between atoms: _104  and  _105
REMARK   43  A    between atoms: _107  and  _109
REMARK   44  A    between atoms: _109  and  _110
REMARK   45  A    between atoms: _109  and  _112
REMARK   46  A    between atoms: _112  and  _113
REMARK   47  A    between atoms: _113  and  _114
REMARK   48  A    between atoms: _114  and  _115
REMARK   49  A    between atoms: _124  and  _126
REMARK   50  A    between atoms: _126  and  _127
REMARK   51  A    between atoms: _126  and  _129
REMARK   52  A    between atoms: _129  and  _130
REMARK   53  A    between atoms: _133  and  _135
REMARK   54  A    between atoms: _135  and  _136
REMARK   55  A    between atoms: _135  and  _138
REMARK   56  A    between atoms: _140  and  _142
REMARK   57  A    between atoms: _142  and  _143
REMARK   58  A    between atoms: _142  and  _145
REMARK   59  A    between atoms: _145  and  _146
REMARK   60  A    between atoms: _146  and  _147
REMARK   61  A    between atoms: _147  and  _148
REMARK   62  A    between atoms: _157  and  _159
REMARK   63  A    between atoms: _159  and  _160
REMARK   64  A    between atoms: _159  and  _162
REMARK   65  A    between atoms: _162  and  _163
REMARK   66  A    between atoms: _166  and  _168
REMARK   67  A    between atoms: _168  and  _169
REMARK   68  A    between atoms: _168  and  _171
REMARK   69  A    between atoms: _171  and  _172
REMARK   70  A    between atoms: _175  and  _177
REMARK   71  A    between atoms: _177  and  _178
REMARK   72  A    between atoms: _177  and  _180
REMARK   73  A    between atoms: _183  and  _185
REMARK   74  A    between atoms: _185  and  _186
REMARK   75  A    between atoms: _185  and  _188
REMARK   76  A    between atoms: _188  and  _189
REMARK   77  A    between atoms: _194  and  _196
REMARK   78  A    between atoms: _196  and  _197
REMARK   79  A    between atoms: _196  and  _199
REMARK   80  A    between atoms: _199  and  _200
REMARK   81  A    between atoms: _200  and  _201
REMARK   82  A    between atoms: _201  and  _202
REMARK   83  A    between atoms: _211  and  _213
REMARK   84  A    between atoms: _213  and  _214
REMARK   85  A    between atoms: _213  and  _216
REMARK   86  A    between atoms: _216  and  _217
REMARK   87  A    between atoms: _220  and  _222
REMARK   88  A    between atoms: _222  and  _223
REMARK   89  A    between atoms: _225  and  _227
REMARK   90  A    between atoms: _227  and  _228
REMARK   91  A    between atoms: _227  and  _230
REMARK   92  A    between atoms: _230  and  _231
REMARK   93  A    between atoms: _234  and  _236
REMARK   94  A    between atoms: _236  and  _237
REMARK   95  A    between atoms: _236  and  _239
REMARK   96  A    between atoms: _239  and  _240
REMARK   97  A    between atoms: _240  and  _241
REMARK   98  A    between atoms: _241  and  _242
REMARK                            x       y       z     vdW  Elec       q    Type
REMARK                         _______ _______ _______ _____ _____    ______ ____
ROOT
ATOM      1  O   HOH     1      14.806  -0.125  -0.446  0.00  0.00    +0.000 OA
ENDROOT
TORSDOF 0
REMARK  Name = ../refined-set-2016/4mrg/4mrg_pocket.pdb
REMARK  98 active torsions:
REMARK  status: ('A' for Active; 'I' for Inactive)
REMARK    1  A    between atoms: _1  and  _3
REMARK    2  A    between atoms: _3  and  _4
REMARK    3  A    between atoms: _3  and  _6
REMARK    4  A    between atoms: _6  and  _7
REMARK    5  A    between atoms: _10  and  _12
REMARK    6  A    between atoms: _12  and  _13
REMARK    7  A    between atoms: _12  and  _15
REMARK    8  A    between atoms: _15  and  _16
REMARK    9  A    between atoms: _21  and  _23
REMARK   10  A    between atoms: _23  and  _24
REMARK   11  A    between atoms: _23  and  _26
REMARK   12  A    between atoms: _29  and  _31
REMARK   13  A    between atoms: _31  and  _32
REMARK   14  A    between atoms: _31  and  _34
REMARK   15  A    between atoms: _34  and  _35
REMARK   16  A    between atoms: _38  and  _40
REMARK   17  A    between atoms: _40  and  _41
REMARK   18  A    between atoms: _40  and  _43
REMARK   19  A    between atoms: _45  and  _47
REMARK   20  A    between atoms: _47  and  _48
REMARK   21  A    between atoms: _47  and  _50
REMARK   22  A    between atoms: _50  and  _51
REMARK   23  A    between atoms: _51  and  _52
REMARK   24  A    between atoms: _52  and  _53
REMARK   25  A    between atoms: _62  and  _64
REMARK   26  A    between atoms: _64  and  _65
REMARK   27  A    between atoms: _64  and  _67
REMARK   28  A    between atoms: _67  and  _68
REMARK   29  A    between atoms: _73  and  _75
REMARK   30  A    between atoms: _75  and  _76
REMARK   31  A    between atoms: _75  and  _78
REMARK   32  A    between atoms: _81  and  _83
REMARK   33  A    between atoms: _83  and  _84
REMARK   34  A    between atoms: _83  and  _86
REMARK   35  A    between atoms: _86  and  _87
REMARK   36  A    between atoms: _87  and  _88
REMARK   37  A    between atoms: _91  and  _93
REMARK   38  A    between atoms: _93  and  _94
REMARK   39  A    between atoms: _93  and  _96
REMARK   40  A    between atoms: _96  and  _97
REMARK   41  A    between atoms: _102  and  _104
REMARK   42  A    between atoms: _104  and  _105
REMARK   43  A    between atoms: _107  and  _109
REMARK   44  A    between atoms: _109  and  _110
REMARK   45  A    between atoms: _109  and  _112
REMARK   46  A    between atoms: _112  and  _113
REMARK   47  A    between atoms: _113  and  _114
REMARK   48  A    between atoms: _114  and  _115
REMARK   49  A    between atoms: _124  and  _126
REMARK   50  A    between atoms: _126  and  _127
REMARK   51  A    between atoms: _126  and  _129
REMARK   52  A    between atoms: _129  and  _130
REMARK   53  A    between atoms: _133  and  _135
REMARK   54  A    between atoms: _135  and  _136
REMARK   55  A    between atoms: _135  and  _138
REMARK   56  A    between atoms: _140  and  _142
REMARK   57  A    between atoms: _142  and  _143
REMARK   58  A    between atoms: _142  and  _145
REMARK   59  A    between atoms: _145  and  _146
REMARK   60  A    between atoms: _146  and  _147
REMARK   61  A    between atoms: _147  and  _148
REMARK   62  A    between atoms: _157  and  _159
REMARK   63  A    between atoms: _159  and  _160
REMARK   64  A    between atoms: _159  and  _162
REMARK   65  A    between atoms: _162  and  _163
REMARK   66  A    between atoms: _166  and  _168
REMARK   67  A    between atoms: _168  and  _169
REMARK   68  A    between atoms: _168  and  _171
REMARK   69  A    between atoms: _171  and  _172
REMARK   70  A    between atoms: _175  and  _177
REMARK   71  A    between atoms: _177  and  _178
REMARK   72  A    between atoms: _177  and  _180
REMARK   73  A    between atoms: _183  and  _185
REMARK   74  A    between atoms: _185  and  _186
REMARK   75  A    between atoms: _185  and  _188
REMARK   76  A    between atoms: _188  and  _189
REMARK   77  A    between atoms: _194  and  _196
REMARK   78  A    between atoms: _196  and  _197
REMARK   79  A    between atoms: _196  and  _199
REMARK   80  A    between atoms: _199  and  _200
REMARK   81  A    between atoms: _200  and  _201
REMARK   82  A    between atoms: _201  and  _202
REMARK   83  A    between atoms: _211  and  _213
REMARK   84  A    between atoms: _213  and  _214
REMARK   85  A    between atoms: _213  and  _216
REMARK   86  A    between atoms: _216  and  _217
REMARK   87  A    between atoms: _220  and  _222
REMARK   88  A    between atoms: _222  and  _223
REMARK   89  A    between atoms: _225  and  _227
REMARK   90  A    between atoms: _227  and  _228
REMARK   91  A    between atoms: _227  and  _230
REMARK   92  A    between atoms: _230  and  _231
REMARK   93  A    between atoms: _234  and  _236
REMARK   94  A    between atoms: _236  and  _237
REMARK   95  A    between atoms: _236  and  _239
REMARK   96  A    between atoms: _239  and  _240
REMARK   97  A    between atoms: _240  and  _241
REMARK   98  A    between atoms: _241  and  _242
REMARK                            x       y       z     vdW  Elec       q    Type
REMARK                         _______ _______ _______ _____ _____    ______ ____
ROOT
ATOM      1  O   HOH     1       6.306  -7.304   1.089  0.00  0.00    +0.000 OA
ENDROOT
TORSDOF 0
REMARK  Name = ../refined-set-2016/4mrg/4mrg_pocket.pdb
REMARK  98 active torsions:
REMARK  status: ('A' for Active; 'I' for Inactive)
REMARK    1  A    between atoms: _1  and  _3
REMARK    2  A    between atoms: _3  and  _4
REMARK    3  A    between atoms: _3  and  _6
REMARK    4  A    between atoms: _6  and  _7
REMARK    5  A    between atoms: _10  and  _12
REMARK    6  A    between atoms: _12  and  _13
REMARK    7  A    between atoms: _12  and  _15
REMARK    8  A    between atoms: _15  and  _16
REMARK    9  A    between atoms: _21  and  _23
REMARK   10  A    between atoms: _23  and  _24
REMARK   11  A    between atoms: _23  and  _26
REMARK   12  A    between atoms: _29  and  _31
REMARK   13  A    between atoms: _31  and  _32
REMARK   14  A    between atoms: _31  and  _34
REMARK   15  A    between atoms: _34  and  _35
REMARK   16  A    between atoms: _38  and  _40
REMARK   17  A    between atoms: _40  and  _41
REMARK   18  A    between atoms: _40  and  _43
REMARK   19  A    between atoms: _45  and  _47
REMARK   20  A    between atoms: _47  and  _48
REMARK   21  A    between atoms: _47  and  _50
REMARK   22  A    between atoms: _50  and  _51
REMARK   23  A    between atoms: _51  and  _52
REMARK   24  A    between atoms: _52  and  _53
REMARK   25  A    between atoms: _62  and  _64
REMARK   26  A    between atoms: _64  and  _65
REMARK   27  A    between atoms: _64  and  _67
REMARK   28  A    between atoms: _67  and  _68
REMARK   29  A    between atoms: _73  and  _75
REMARK   30  A    between atoms: _75  and  _76
REMARK   31  A    between atoms: _75  and  _78
REMARK   32  A    between atoms: _81  and  _83
REMARK   33  A    between atoms: _83  and  _84
REMARK   34  A    between atoms: _83  and  _86
REMARK   35  A    between atoms: _86  and  _87
REMARK   36  A    between atoms: _87  and  _88
REMARK   37  A    between atoms: _91  and  _93
REMARK   38  A    between atoms: _93  and  _94
REMARK   39  A    between atoms: _93  and  _96
REMARK   40  A    between atoms: _96  and  _97
REMARK   41  A    between atoms: _102  and  _104
REMARK   42  A    between atoms: _104  and  _105
REMARK   43  A    between atoms: _107  and  _109
REMARK   44  A    between atoms: _109  and  _110
REMARK   45  A    between atoms: _109  and  _112
REMARK   46  A    between atoms: _112  and  _113
REMARK   47  A    between atoms: _113  and  _114
REMARK   48  A    between atoms: _114  and  _115
REMARK   49  A    between atoms: _124  and  _126
REMARK   50  A    between atoms: _126  and  _127
REMARK   51  A    between atoms: _126  and  _129
REMARK   52  A    between atoms: _129  and  _130
REMARK   53  A    between atoms: _133  and  _135
REMARK   54  A    between atoms: _135  and  _136
REMARK   55  A    between atoms: _135  and  _138
REMARK   56  A    between atoms: _140  and  _142
REMARK   57  A    between atoms: _142  and  _143
REMARK   58  A    between atoms: _142  and  _145
REMARK   59  A    between atoms: _145  and  _146
REMARK   60  A    between atoms: _146  and  _147
REMARK   61  A    between atoms: _147  and  _148
REMARK   62  A    between atoms: _157  and  _159
REMARK   63  A    between atoms: _159  and  _160
REMARK   64  A    between atoms: _159  and  _162
REMARK   65  A    between atoms: _162  and  _163
REMARK   66  A    between atoms: _166  and  _168
REMARK   67  A    between atoms: _168  and  _169
REMARK   68  A    between atoms: _168  and  _171
REMARK   69  A    between atoms: _171  and  _172
REMARK   70  A    between atoms: _175  and  _177
REMARK   71  A    between atoms: _177  and  _178
REMARK   72  A    between atoms: _177  and  _180
REMARK   73  A    between atoms: _183  and  _185
REMARK   74  A    between atoms: _185  and  _186
REMARK   75  A    between atoms: _185  and  _188
REMARK   76  A    between atoms: _188  and  _189
REMARK   77  A    between atoms: _194  and  _196
REMARK   78  A    between atoms: _196  and  _197
REMARK   79  A    between atoms: _196  and  _199
REMARK   80  A    between atoms: _199  and  _200
REMARK   81  A    between atoms: _200  and  _201
REMARK   82  A    between atoms: _201  and  _202
REMARK   83  A    between atoms: _211  and  _213
REMARK   84  A    between atoms: _213  and  _214
REMARK   85  A    between atoms: _213  and  _216
REMARK   86  A    between atoms: _216  and  _217
REMARK   87  A    between atoms: _220  and  _222
REMARK   88  A    between atoms: _222  and  _223
REMARK   89  A    between atoms: _225  and  _227
REMARK   90  A    between atoms: _227  and  _228
REMARK   91  A    between atoms: _227  and  _230
REMARK   92  A    between atoms: _230  and  _231
REMARK   93  A    between atoms: _234  and  _236
REMARK   94  A    between atoms: _236  and  _237
REMARK   95  A    between atoms: _236  and  _239
REMARK   96  A    between atoms: _239  and  _240
REMARK   97  A    between atoms: _240  and  _241
REMARK   98  A    between atoms: _241  and  _242
REMARK                            x       y       z     vdW  Elec       q    Type
REMARK                         _______ _______ _______ _____ _____    ______ ____
ROOT
ATOM      1  O   HOH     1       3.843  -8.762  -4.421  0.00  0.00    +0.000 OA
ENDROOT
TORSDOF 0
REMARK  Name = ../refined-set-2016/4mrg/4mrg_pocket.pdb
REMARK  98 active torsions:
REMARK  status: ('A' for Active; 'I' for Inactive)
REMARK    1  A    between atoms: _1  and  _3
REMARK    2  A    between atoms: _3  and  _4
REMARK    3  A    between atoms: _3  and  _6
REMARK    4  A    between atoms: _6  and  _7
REMARK    5  A    between atoms: _10  and  _12
REMARK    6  A    between atoms: _12  and  _13
REMARK    7  A    between atoms: _12  and  _15
REMARK    8  A    between atoms: _15  and  _16
REMARK    9  A    between atoms: _21  and  _23
REMARK   10  A    between atoms: _23  and  _24
REMARK   11  A    between atoms: _23  and  _26
REMARK   12  A    between atoms: _29  and  _31
REMARK   13  A    between atoms: _31  and  _32
REMARK   14  A    between atoms: _31  and  _34
REMARK   15  A    between atoms: _34  and  _35
REMARK   16  A    between atoms: _38  and  _40
REMARK   17  A    between atoms: _40  and  _41
REMARK   18  A    between atoms: _40  and  _43
REMARK   19  A    between atoms: _45  and  _47
REMARK   20  A    between atoms: _47  and  _48
REMARK   21  A    between atoms: _47  and  _50
REMARK   22  A    between atoms: _50  and  _51
REMARK   23  A    between atoms: _51  and  _52
REMARK   24  A    between atoms: _52  and  _53
REMARK   25  A    between atoms: _62  and  _64
REMARK   26  A    between atoms: _64  and  _65
REMARK   27  A    between atoms: _64  and  _67
REMARK   28  A    between atoms: _67  and  _68
REMARK   29  A    between atoms: _73  and  _75
REMARK   30  A    between atoms: _75  and  _76
REMARK   31  A    between atoms: _75  and  _78
REMARK   32  A    between atoms: _81  and  _83
REMARK   33  A    between atoms: _83  and  _84
REMARK   34  A    between atoms: _83  and  _86
REMARK   35  A    between atoms: _86  and  _87
REMARK   36  A    between atoms: _87  and  _88
REMARK   37  A    between atoms: _91  and  _93
REMARK   38  A    between atoms: _93  and  _94
REMARK   39  A    between atoms: _93  and  _96
REMARK   40  A    between atoms: _96  and  _97
REMARK   41  A    between atoms: _102  and  _104
REMARK   42  A    between atoms: _104  and  _105
REMARK   43  A    between atoms: _107  and  _109
REMARK   44  A    between atoms: _109  and  _110
REMARK   45  A    between atoms: _109  and  _112
REMARK   46  A    between atoms: _112  and  _113
REMARK   47  A    between atoms: _113  and  _114
REMARK   48  A    between atoms: _114  and  _115
REMARK   49  A    between atoms: _124  and  _126
REMARK   50  A    between atoms: _126  and  _127
REMARK   51  A    between atoms: _126  and  _129
REMARK   52  A    between atoms: _129  and  _130
REMARK   53  A    between atoms: _133  and  _135
REMARK   54  A    between atoms: _135  and  _136
REMARK   55  A    between atoms: _135  and  _138
REMARK   56  A    between atoms: _140  and  _142
REMARK   57  A    between atoms: _142  and  _143
REMARK   58  A    between atoms: _142  and  _145
REMARK   59  A    between atoms: _145  and  _146
REMARK   60  A    between atoms: _146  and  _147
REMARK   61  A    between atoms: _147  and  _148
REMARK   62  A    between atoms: _157  and  _159
REMARK   63  A    between atoms: _159  and  _160
REMARK   64  A    between atoms: _159  and  _162
REMARK   65  A    between atoms: _162  and  _163
REMARK   66  A    between atoms: _166  and  _168
REMARK   67  A    between atoms: _168  and  _169
REMARK   68  A    between atoms: _168  and  _171
REMARK   69  A    between atoms: _171  and  _172
REMARK   70  A    between atoms: _175  and  _177
REMARK   71  A    between atoms: _177  and  _178
REMARK   72  A    between atoms: _177  and  _180
REMARK   73  A    between atoms: _183  and  _185
REMARK   74  A    between atoms: _185  and  _186
REMARK   75  A    between atoms: _185  and  _188
REMARK   76  A    between atoms: _188  and  _189
REMARK   77  A    between atoms: _194  and  _196
REMARK   78  A    between atoms: _196  and  _197
REMARK   79  A    between atoms: _196  and  _199
REMARK   80  A    between atoms: _199  and  _200
REMARK   81  A    between atoms: _200  and  _201
REMARK   82  A    between atoms: _201  and  _202
REMARK   83  A    between atoms: _211  and  _213
REMARK   84  A    between atoms: _213  and  _214
REMARK   85  A    between atoms: _213  and  _216
REMARK   86  A    between atoms: _216  and  _217
REMARK   87  A    between atoms: _220  and  _222
REMARK   88  A    between atoms: _222  and  _223
REMARK   89  A    between atoms: _225  and  _227
REMARK   90  A    between atoms: _227  and  _228
REMARK   91  A    between atoms: _227  and  _230
REMARK   92  A    between atoms: _230  and  _231
REMARK   93  A    between atoms: _234  and  _236
REMARK   94  A    between atoms: _236  and  _237
REMARK   95  A    between atoms: _236  and  _239
REMARK   96  A    between atoms: _239  and  _240
REMARK   97  A    between atoms: _240  and  _241
REMARK   98  A    between atoms: _241  and  _242
REMARK                            x       y       z     vdW  Elec       q    Type
REMARK                         _______ _______ _______ _____ _____    ______ ____
ROOT
ATOM      1  O   HOH     1       7.134  -9.349   2.733  0.00  0.00    +0.000 OA
ENDROOT
TORSDOF 0
REMARK  Name = ../refined-set-2016/4mrg/4mrg_pocket.pdb
REMARK  98 active torsions:
REMARK  status: ('A' for Active; 'I' for Inactive)
REMARK    1  A    between atoms: _1  and  _3
REMARK    2  A    between atoms: _3  and  _4
REMARK    3  A    between atoms: _3  and  _6
REMARK    4  A    between atoms: _6  and  _7
REMARK    5  A    between atoms: _10  and  _12
REMARK    6  A    between atoms: _12  and  _13
REMARK    7  A    between atoms: _12  and  _15
REMARK    8  A    between atoms: _15  and  _16
REMARK    9  A    between atoms: _21  and  _23
REMARK   10  A    between atoms: _23  and  _24
REMARK   11  A    between atoms: _23  and  _26
REMARK   12  A    between atoms: _29  and  _31
REMARK   13  A    between atoms: _31  and  _32
REMARK   14  A    between atoms: _31  and  _34
REMARK   15  A    between atoms: _34  and  _35
REMARK   16  A    between atoms: _38  and  _40
REMARK   17  A    between atoms: _40  and  _41
REMARK   18  A    between atoms: _40  and  _43
REMARK   19  A    between atoms: _45  and  _47
REMARK   20  A    between atoms: _47  and  _48
REMARK   21  A    between atoms: _47  and  _50
REMARK   22  A    between atoms: _50  and  _51
REMARK   23  A    between atoms: _51  and  _52
REMARK   24  A    between atoms: _52  and  _53
REMARK   25  A    between atoms: _62  and  _64
REMARK   26  A    between atoms: _64  and  _65
REMARK   27  A    between atoms: _64  and  _67
REMARK   28  A    between atoms: _67  and  _68
REMARK   29  A    between atoms: _73  and  _75
REMARK   30  A    between atoms: _75  and  _76
REMARK   31  A    between atoms: _75  and  _78
REMARK   32  A    between atoms: _81  and  _83
REMARK   33  A    between atoms: _83  and  _84
REMARK   34  A    between atoms: _83  and  _86
REMARK   35  A    between atoms: _86  and  _87
REMARK   36  A    between atoms: _87  and  _88
REMARK   37  A    between atoms: _91  and  _93
REMARK   38  A    between atoms: _93  and  _94
REMARK   39  A    between atoms: _93  and  _96
REMARK   40  A    between atoms: _96  and  _97
REMARK   41  A    between atoms: _102  and  _104
REMARK   42  A    between atoms: _104  and  _105
REMARK   43  A    between atoms: _107  and  _109
REMARK   44  A    between atoms: _109  and  _110
REMARK   45  A    between atoms: _109  and  _112
REMARK   46  A    between atoms: _112  and  _113
REMARK   47  A    between atoms: _113  and  _114
REMARK   48  A    between atoms: _114  and  _115
REMARK   49  A    between atoms: _124  and  _126
REMARK   50  A    between atoms: _126  and  _127
REMARK   51  A    between atoms: _126  and  _129
REMARK   52  A    between atoms: _129  and  _130
REMARK   53  A    between atoms: _133  and  _135
REMARK   54  A    between atoms: _135  and  _136
REMARK   55  A    between atoms: _135  and  _138
REMARK   56  A    between atoms: _140  and  _142
REMARK   57  A    between atoms: _142  and  _143
REMARK   58  A    between atoms: _142  and  _145
REMARK   59  A    between atoms: _145  and  _146
REMARK   60  A    between atoms: _146  and  _147
REMARK   61  A    between atoms: _147  and  _148
REMARK   62  A    between atoms: _157  and  _159
REMARK   63  A    between atoms: _159  and  _160
REMARK   64  A    between atoms: _159  and  _162
REMARK   65  A    between atoms: _162  and  _163
REMARK   66  A    between atoms: _166  and  _168
REMARK   67  A    between atoms: _168  and  _169
REMARK   68  A    between atoms: _168  and  _171
REMARK   69  A    between atoms: _171  and  _172
REMARK   70  A    between atoms: _175  and  _177
REMARK   71  A    between atoms: _177  and  _178
REMARK   72  A    between atoms: _177  and  _180
REMARK   73  A    between atoms: _183  and  _185
REMARK   74  A    between atoms: _185  and  _186
REMARK   75  A    between atoms: _185  and  _188
REMARK   76  A    between atoms: _188  and  _189
REMARK   77  A    between atoms: _194  and  _196
REMARK   78  A    between atoms: _196  and  _197
REMARK   79  A    between atoms: _196  and  _199
REMARK   80  A    between atoms: _199  and  _200
REMARK   81  A    between atoms: _200  and  _201
REMARK   82  A    between atoms: _201  and  _202
REMARK   83  A    between atoms: _211  and  _213
REMARK   84  A    between atoms: _213  and  _214
REMARK   85  A    between atoms: _213  and  _216
REMARK   86  A    between atoms: _216  and  _217
REMARK   87  A    between atoms: _220  and  _222
REMARK   88  A    between atoms: _222  and  _223
REMARK   89  A    between atoms: _225  and  _227
REMARK   90  A    between atoms: _227  and  _228
REMARK   91  A    between atoms: _227  and  _230
REMARK   92  A    between atoms: _230  and  _231
REMARK   93  A    between atoms: _234  and  _236
REMARK   94  A    between atoms: _236  and  _237
REMARK   95  A    between atoms: _236  and  _239
REMARK   96  A    between atoms: _239  and  _240
REMARK   97  A    between atoms: _240  and  _241
REMARK   98  A    between atoms: _241  and  _242
REMARK                            x       y       z     vdW  Elec       q    Type
REMARK                         _______ _______ _______ _____ _____    ______ ____
ROOT
ATOM      1  O   HOH     1      15.739   1.980   3.121  0.00  0.00    +0.000 OA
ENDROOT
TORSDOF 0
REMARK  Name = ../refined-set-2016/4mrg/4mrg_pocket.pdb
REMARK  98 active torsions:
REMARK  status: ('A' for Active; 'I' for Inactive)
REMARK    1  A    between atoms: _1  and  _3
REMARK    2  A    between atoms: _3  and  _4
REMARK    3  A    between atoms: _3  and  _6
REMARK    4  A    between atoms: _6  and  _7
REMARK    5  A    between atoms: _10  and  _12
REMARK    6  A    between atoms: _12  and  _13
REMARK    7  A    between atoms: _12  and  _15
REMARK    8  A    between atoms: _15  and  _16
REMARK    9  A    between atoms: _21  and  _23
REMARK   10  A    between atoms: _23  and  _24
REMARK   11  A    between atoms: _23  and  _26
REMARK   12  A    between atoms: _29  and  _31
REMARK   13  A    between atoms: _31  and  _32
REMARK   14  A    between atoms: _31  and  _34
REMARK   15  A    between atoms: _34  and  _35
REMARK   16  A    between atoms: _38  and  _40
REMARK   17  A    between atoms: _40  and  _41
REMARK   18  A    between atoms: _40  and  _43
REMARK   19  A    between atoms: _45  and  _47
REMARK   20  A    between atoms: _47  and  _48
REMARK   21  A    between atoms: _47  and  _50
REMARK   22  A    between atoms: _50  and  _51
REMARK   23  A    between atoms: _51  and  _52
REMARK   24  A    between atoms: _52  and  _53
REMARK   25  A    between atoms: _62  and  _64
REMARK   26  A    between atoms: _64  and  _65
REMARK   27  A    between atoms: _64  and  _67
REMARK   28  A    between atoms: _67  and  _68
REMARK   29  A    between atoms: _73  and  _75
REMARK   30  A    between atoms: _75  and  _76
REMARK   31  A    between atoms: _75  and  _78
REMARK   32  A    between atoms: _81  and  _83
REMARK   33  A    between atoms: _83  and  _84
REMARK   34  A    between atoms: _83  and  _86
REMARK   35  A    between atoms: _86  and  _87
REMARK   36  A    between atoms: _87  and  _88
REMARK   37  A    between atoms: _91  and  _93
REMARK   38  A    between atoms: _93  and  _94
REMARK   39  A    between atoms: _93  and  _96
REMARK   40  A    between atoms: _96  and  _97
REMARK   41  A    between atoms: _102  and  _104
REMARK   42  A    between atoms: _104  and  _105
REMARK   43  A    between atoms: _107  and  _109
REMARK   44  A    between atoms: _109  and  _110
REMARK   45  A    between atoms: _109  and  _112
REMARK   46  A    between atoms: _112  and  _113
REMARK   47  A    between atoms: _113  and  _114
REMARK   48  A    between atoms: _114  and  _115
REMARK   49  A    between atoms: _124  and  _126
REMARK   50  A    between atoms: _126  and  _127
REMARK   51  A    between atoms: _126  and  _129
REMARK   52  A    between atoms: _129  and  _130
REMARK   53  A    between atoms: _133  and  _135
REMARK   54  A    between atoms: _135  and  _136
REMARK   55  A    between atoms: _135  and  _138
REMARK   56  A    between atoms: _140  and  _142
REMARK   57  A    between atoms: _142  and  _143
REMARK   58  A    between atoms: _142  and  _145
REMARK   59  A    between atoms: _145  and  _146
REMARK   60  A    between atoms: _146  and  _147
REMARK   61  A    between atoms: _147  and  _148
REMARK   62  A    between atoms: _157  and  _159
REMARK   63  A    between atoms: _159  and  _160
REMARK   64  A    between atoms: _159  and  _162
REMARK   65  A    between atoms: _162  and  _163
REMARK   66  A    between atoms: _166  and  _168
REMARK   67  A    between atoms: _168  and  _169
REMARK   68  A    between atoms: _168  and  _171
REMARK   69  A    between atoms: _171  and  _172
REMARK   70  A    between atoms: _175  and  _177
REMARK   71  A    between atoms: _177  and  _178
REMARK   72  A    between atoms: _177  and  _180
REMARK   73  A    between atoms: _183  and  _185
REMARK   74  A    between atoms: _185  and  _186
REMARK   75  A    between atoms: _185  and  _188
REMARK   76  A    between atoms: _188  and  _189
REMARK   77  A    between atoms: _194  and  _196
REMARK   78  A    between atoms: _196  and  _197
REMARK   79  A    between atoms: _196  and  _199
REMARK   80  A    between atoms: _199  and  _200
REMARK   81  A    between atoms: _200  and  _201
REMARK   82  A    between atoms: _201  and  _202
REMARK   83  A    between atoms: _211  and  _213
REMARK   84  A    between atoms: _213  and  _214
REMARK   85  A    between atoms: _213  and  _216
REMARK   86  A    between atoms: _216  and  _217
REMARK   87  A    between atoms: _220  and  _222
REMARK   88  A    between atoms: _222  and  _223
REMARK   89  A    between atoms: _225  and  _227
REMARK   90  A    between atoms: _227  and  _228
REMARK   91  A    between atoms: _227  and  _230
REMARK   92  A    between atoms: _230  and  _231
REMARK   93  A    between atoms: _234  and  _236
REMARK   94  A    between atoms: _236  and  _237
REMARK   95  A    between atoms: _236  and  _239
REMARK   96  A    between atoms: _239  and  _240
REMARK   97  A    between atoms: _240  and  _241
REMARK   98  A    between atoms: _241  and  _242
REMARK                            x       y       z     vdW  Elec       q    Type
REMARK                         _______ _______ _______ _____ _____    ______ ____
ROOT
ATOM      1  O   HOH     1       9.108  -7.158  -8.823  0.00  0.00    +0.000 OA
ENDROOT
TORSDOF 0
REMARK  Name = ../refined-set-2016/4mrg/4mrg_pocket.pdb
REMARK  98 active torsions:
REMARK  status: ('A' for Active; 'I' for Inactive)
REMARK    1  A    between atoms: _1  and  _3
REMARK    2  A    between atoms: _3  and  _4
REMARK    3  A    between atoms: _3  and  _6
REMARK    4  A    between atoms: _6  and  _7
REMARK    5  A    between atoms: _10  and  _12
REMARK    6  A    between atoms: _12  and  _13
REMARK    7  A    between atoms: _12  and  _15
REMARK    8  A    between atoms: _15  and  _16
REMARK    9  A    between atoms: _21  and  _23
REMARK   10  A    between atoms: _23  and  _24
REMARK   11  A    between atoms: _23  and  _26
REMARK   12  A    between atoms: _29  and  _31
REMARK   13  A    between atoms: _31  and  _32
REMARK   14  A    between atoms: _31  and  _34
REMARK   15  A    between atoms: _34  and  _35
REMARK   16  A    between atoms: _38  and  _40
REMARK   17  A    between atoms: _40  and  _41
REMARK   18  A    between atoms: _40  and  _43
REMARK   19  A    between atoms: _45  and  _47
REMARK   20  A    between atoms: _47  and  _48
REMARK   21  A    between atoms: _47  and  _50
REMARK   22  A    between atoms: _50  and  _51
REMARK   23  A    between atoms: _51  and  _52
REMARK   24  A    between atoms: _52  and  _53
REMARK   25  A    between atoms: _62  and  _64
REMARK   26  A    between atoms: _64  and  _65
REMARK   27  A    between atoms: _64  and  _67
REMARK   28  A    between atoms: _67  and  _68
REMARK   29  A    between atoms: _73  and  _75
REMARK   30  A    between atoms: _75  and  _76
REMARK   31  A    between atoms: _75  and  _78
REMARK   32  A    between atoms: _81  and  _83
REMARK   33  A    between atoms: _83  and  _84
REMARK   34  A    between atoms: _83  and  _86
REMARK   35  A    between atoms: _86  and  _87
REMARK   36  A    between atoms: _87  and  _88
REMARK   37  A    between atoms: _91  and  _93
REMARK   38  A    between atoms: _93  and  _94
REMARK   39  A    between atoms: _93  and  _96
REMARK   40  A    between atoms: _96  and  _97
REMARK   41  A    between atoms: _102  and  _104
REMARK   42  A    between atoms: _104  and  _105
REMARK   43  A    between atoms: _107  and  _109
REMARK   44  A    between atoms: _109  and  _110
REMARK   45  A    between atoms: _109  and  _112
REMARK   46  A    between atoms: _112  and  _113
REMARK   47  A    between atoms: _113  and  _114
REMARK   48  A    between atoms: _114  and  _115
REMARK   49  A    between atoms: _124  and  _126
REMARK   50  A    between atoms: _126  and  _127
REMARK   51  A    between atoms: _126  and  _129
REMARK   52  A    between atoms: _129  and  _130
REMARK   53  A    between atoms: _133  and  _135
REMARK   54  A    between atoms: _135  and  _136
REMARK   55  A    between atoms: _135  and  _138
REMARK   56  A    between atoms: _140  and  _142
REMARK   57  A    between atoms: _142  and  _143
REMARK   58  A    between atoms: _142  and  _145
REMARK   59  A    between atoms: _145  and  _146
REMARK   60  A    between atoms: _146  and  _147
REMARK   61  A    between atoms: _147  and  _148
REMARK   62  A    between atoms: _157  and  _159
REMARK   63  A    between atoms: _159  and  _160
REMARK   64  A    between atoms: _159  and  _162
REMARK   65  A    between atoms: _162  and  _163
REMARK   66  A    between atoms: _166  and  _168
REMARK   67  A    between atoms: _168  and  _169
REMARK   68  A    between atoms: _168  and  _171
REMARK   69  A    between atoms: _171  and  _172
REMARK   70  A    between atoms: _175  and  _177
REMARK   71  A    between atoms: _177  and  _178
REMARK   72  A    between atoms: _177  and  _180
REMARK   73  A    between atoms: _183  and  _185
REMARK   74  A    between atoms: _185  and  _186
REMARK   75  A    between atoms: _185  and  _188
REMARK   76  A    between atoms: _188  and  _189
REMARK   77  A    between atoms: _194  and  _196
REMARK   78  A    between atoms: _196  and  _197
REMARK   79  A    between atoms: _196  and  _199
REMARK   80  A    between atoms: _199  and  _200
REMARK   81  A    between atoms: _200  and  _201
REMARK   82  A    between atoms: _201  and  _202
REMARK   83  A    between atoms: _211  and  _213
REMARK   84  A    between atoms: _213  and  _214
REMARK   85  A    between atoms: _213  and  _216
REMARK   86  A    between atoms: _216  and  _217
REMARK   87  A    between atoms: _220  and  _222
REMARK   88  A    between atoms: _222  and  _223
REMARK   89  A    between atoms: _225  and  _227
REMARK   90  A    between atoms: _227  and  _228
REMARK   91  A    between atoms: _227  and  _230
REMARK   92  A    between atoms: _230  and  _231
REMARK   93  A    between atoms: _234  and  _236
REMARK   94  A    between atoms: _236  and  _237
REMARK   95  A    between atoms: _236  and  _239
REMARK   96  A    between atoms: _239  and  _240
REMARK   97  A    between atoms: _240  and  _241
REMARK   98  A    between atoms: _241  and  _242
REMARK                            x       y       z     vdW  Elec       q    Type
REMARK                         _______ _______ _______ _____ _____    ______ ____
ROOT
ATOM      1  O   HOH     1       9.590  -9.216   4.034  0.00  0.00    +0.000 OA
ENDROOT
TORSDOF 0
REMARK  Name = ../refined-set-2016/4mrg/4mrg_pocket.pdb
REMARK  98 active torsions:
REMARK  status: ('A' for Active; 'I' for Inactive)
REMARK    1  A    between atoms: _1  and  _3
REMARK    2  A    between atoms: _3  and  _4
REMARK    3  A    between atoms: _3  and  _6
REMARK    4  A    between atoms: _6  and  _7
REMARK    5  A    between atoms: _10  and  _12
REMARK    6  A    between atoms: _12  and  _13
REMARK    7  A    between atoms: _12  and  _15
REMARK    8  A    between atoms: _15  and  _16
REMARK    9  A    between atoms: _21  and  _23
REMARK   10  A    between atoms: _23  and  _24
REMARK   11  A    between atoms: _23  and  _26
REMARK   12  A    between atoms: _29  and  _31
REMARK   13  A    between atoms: _31  and  _32
REMARK   14  A    between atoms: _31  and  _34
REMARK   15  A    between atoms: _34  and  _35
REMARK   16  A    between atoms: _38  and  _40
REMARK   17  A    between atoms: _40  and  _41
REMARK   18  A    between atoms: _40  and  _43
REMARK   19  A    between atoms: _45  and  _47
REMARK   20  A    between atoms: _47  and  _48
REMARK   21  A    between atoms: _47  and  _50
REMARK   22  A    between atoms: _50  and  _51
REMARK   23  A    between atoms: _51  and  _52
REMARK   24  A    between atoms: _52  and  _53
REMARK   25  A    between atoms: _62  and  _64
REMARK   26  A    between atoms: _64  and  _65
REMARK   27  A    between atoms: _64  and  _67
REMARK   28  A    between atoms: _67  and  _68
REMARK   29  A    between atoms: _73  and  _75
REMARK   30  A    between atoms: _75  and  _76
REMARK   31  A    between atoms: _75  and  _78
REMARK   32  A    between atoms: _81  and  _83
REMARK   33  A    between atoms: _83  and  _84
REMARK   34  A    between atoms: _83  and  _86
REMARK   35  A    between atoms: _86  and  _87
REMARK   36  A    between atoms: _87  and  _88
REMARK   37  A    between atoms: _91  and  _93
REMARK   38  A    between atoms: _93  and  _94
REMARK   39  A    between atoms: _93  and  _96
REMARK   40  A    between atoms: _96  and  _97
REMARK   41  A    between atoms: _102  and  _104
REMARK   42  A    between atoms: _104  and  _105
REMARK   43  A    between atoms: _107  and  _109
REMARK   44  A    between atoms: _109  and  _110
REMARK   45  A    between atoms: _109  and  _112
REMARK   46  A    between atoms: _112  and  _113
REMARK   47  A    between atoms: _113  and  _114
REMARK   48  A    between atoms: _114  and  _115
REMARK   49  A    between atoms: _124  and  _126
REMARK   50  A    between atoms: _126  and  _127
REMARK   51  A    between atoms: _126  and  _129
REMARK   52  A    between atoms: _129  and  _130
REMARK   53  A    between atoms: _133  and  _135
REMARK   54  A    between atoms: _135  and  _136
REMARK   55  A    between atoms: _135  and  _138
REMARK   56  A    between atoms: _140  and  _142
REMARK   57  A    between atoms: _142  and  _143
REMARK   58  A    between atoms: _142  and  _145
REMARK   59  A    between atoms: _145  and  _146
REMARK   60  A    between atoms: _146  and  _147
REMARK   61  A    between atoms: _147  and  _148
REMARK   62  A    between atoms: _157  and  _159
REMARK   63  A    between atoms: _159  and  _160
REMARK   64  A    between atoms: _159  and  _162
REMARK   65  A    between atoms: _162  and  _163
REMARK   66  A    between atoms: _166  and  _168
REMARK   67  A    between atoms: _168  and  _169
REMARK   68  A    between atoms: _168  and  _171
REMARK   69  A    between atoms: _171  and  _172
REMARK   70  A    between atoms: _175  and  _177
REMARK   71  A    between atoms: _177  and  _178
REMARK   72  A    between atoms: _177  and  _180
REMARK   73  A    between atoms: _183  and  _185
REMARK   74  A    between atoms: _185  and  _186
REMARK   75  A    between atoms: _185  and  _188
REMARK   76  A    between atoms: _188  and  _189
REMARK   77  A    between atoms: _194  and  _196
REMARK   78  A    between atoms: _196  and  _197
REMARK   79  A    between atoms: _196  and  _199
REMARK   80  A    between atoms: _199  and  _200
REMARK   81  A    between atoms: _200  and  _201
REMARK   82  A    between atoms: _201  and  _202
REMARK   83  A    between atoms: _211  and  _213
REMARK   84  A    between atoms: _213  and  _214
REMARK   85  A    between atoms: _213  and  _216
REMARK   86  A    between atoms: _216  and  _217
REMARK   87  A    between atoms: _220  and  _222
REMARK   88  A    between atoms: _222  and  _223
REMARK   89  A    between atoms: _225  and  _227
REMARK   90  A    between atoms: _227  and  _228
REMARK   91  A    between atoms: _227  and  _230
REMARK   92  A    between atoms: _230  and  _231
REMARK   93  A    between atoms: _234  and  _236
REMARK   94  A    between atoms: _236  and  _237
REMARK   95  A    between atoms: _236  and  _239
REMARK   96  A    between atoms: _239  and  _240
REMARK   97  A    between atoms: _240  and  _241
REMARK   98  A    between atoms: _241  and  _242
REMARK                            x       y       z     vdW  Elec       q    Type
REMARK                         _______ _______ _______ _____ _____    ______ ____
ROOT
ATOM      1  O   HOH     1      11.360  -9.336  -1.247  0.00  0.00    +0.000 OA
ENDROOT
TORSDOF 0
REMARK  Name = ../refined-set-2016/4mrg/4mrg_pocket.pdb
REMARK  98 active torsions:
REMARK  status: ('A' for Active; 'I' for Inactive)
REMARK    1  A    between atoms: _1  and  _3
REMARK    2  A    between atoms: _3  and  _4
REMARK    3  A    between atoms: _3  and  _6
REMARK    4  A    between atoms: _6  and  _7
REMARK    5  A    between atoms: _10  and  _12
REMARK    6  A    between atoms: _12  and  _13
REMARK    7  A    between atoms: _12  and  _15
REMARK    8  A    between atoms: _15  and  _16
REMARK    9  A    between atoms: _21  and  _23
REMARK   10  A    between atoms: _23  and  _24
REMARK   11  A    between atoms: _23  and  _26
REMARK   12  A    between atoms: _29  and  _31
REMARK   13  A    between atoms: _31  and  _32
REMARK   14  A    between atoms: _31  and  _34
REMARK   15  A    between atoms: _34  and  _35
REMARK   16  A    between atoms: _38  and  _40
REMARK   17  A    between atoms: _40  and  _41
REMARK   18  A    between atoms: _40  and  _43
REMARK   19  A    between atoms: _45  and  _47
REMARK   20  A    between atoms: _47  and  _48
REMARK   21  A    between atoms: _47  and  _50
REMARK   22  A    between atoms: _50  and  _51
REMARK   23  A    between atoms: _51  and  _52
REMARK   24  A    between atoms: _52  and  _53
REMARK   25  A    between atoms: _62  and  _64
REMARK   26  A    between atoms: _64  and  _65
REMARK   27  A    between atoms: _64  and  _67
REMARK   28  A    between atoms: _67  and  _68
REMARK   29  A    between atoms: _73  and  _75
REMARK   30  A    between atoms: _75  and  _76
REMARK   31  A    between atoms: _75  and  _78
REMARK   32  A    between atoms: _81  and  _83
REMARK   33  A    between atoms: _83  and  _84
REMARK   34  A    between atoms: _83  and  _86
REMARK   35  A    between atoms: _86  and  _87
REMARK   36  A    between atoms: _87  and  _88
REMARK   37  A    between atoms: _91  and  _93
REMARK   38  A    between atoms: _93  and  _94
REMARK   39  A    between atoms: _93  and  _96
REMARK   40  A    between atoms: _96  and  _97
REMARK   41  A    between atoms: _102  and  _104
REMARK   42  A    between atoms: _104  and  _105
REMARK   43  A    between atoms: _107  and  _109
REMARK   44  A    between atoms: _109  and  _110
REMARK   45  A    between atoms: _109  and  _112
REMARK   46  A    between atoms: _112  and  _113
REMARK   47  A    between atoms: _113  and  _114
REMARK   48  A    between atoms: _114  and  _115
REMARK   49  A    between atoms: _124  and  _126
REMARK   50  A    between atoms: _126  and  _127
REMARK   51  A    between atoms: _126  and  _129
REMARK   52  A    between atoms: _129  and  _130
REMARK   53  A    between atoms: _133  and  _135
REMARK   54  A    between atoms: _135  and  _136
REMARK   55  A    between atoms: _135  and  _138
REMARK   56  A    between atoms: _140  and  _142
REMARK   57  A    between atoms: _142  and  _143
REMARK   58  A    between atoms: _142  and  _145
REMARK   59  A    between atoms: _145  and  _146
REMARK   60  A    between atoms: _146  and  _147
REMARK   61  A    between atoms: _147  and  _148
REMARK   62  A    between atoms: _157  and  _159
REMARK   63  A    between atoms: _159  and  _160
REMARK   64  A    between atoms: _159  and  _162
REMARK   65  A    between atoms: _162  and  _163
REMARK   66  A    between atoms: _166  and  _168
REMARK   67  A    between atoms: _168  and  _169
REMARK   68  A    between atoms: _168  and  _171
REMARK   69  A    between atoms: _171  and  _172
REMARK   70  A    between atoms: _175  and  _177
REMARK   71  A    between atoms: _177  and  _178
REMARK   72  A    between atoms: _177  and  _180
REMARK   73  A    between atoms: _183  and  _185
REMARK   74  A    between atoms: _185  and  _186
REMARK   75  A    between atoms: _185  and  _188
REMARK   76  A    between atoms: _188  and  _189
REMARK   77  A    between atoms: _194  and  _196
REMARK   78  A    between atoms: _196  and  _197
REMARK   79  A    between atoms: _196  and  _199
REMARK   80  A    between atoms: _199  and  _200
REMARK   81  A    between atoms: _200  and  _201
REMARK   82  A    between atoms: _201  and  _202
REMARK   83  A    between atoms: _211  and  _213
REMARK   84  A    between atoms: _213  and  _214
REMARK   85  A    between atoms: _213  and  _216
REMARK   86  A    between atoms: _216  and  _217
REMARK   87  A    between atoms: _220  and  _222
REMARK   88  A    between atoms: _222  and  _223
REMARK   89  A    between atoms: _225  and  _227
REMARK   90  A    between atoms: _227  and  _228
REMARK   91  A    between atoms: _227  and  _230
REMARK   92  A    between atoms: _230  and  _231
REMARK   93  A    between atoms: _234  and  _236
REMARK   94  A    between atoms: _236  and  _237
REMARK   95  A    between atoms: _236  and  _239
REMARK   96  A    between atoms: _239  and  _240
REMARK   97  A    between atoms: _240  and  _241
REMARK   98  A    between atoms: _241  and  _242
REMARK                            x       y       z     vdW  Elec       q    Type
REMARK                         _______ _______ _______ _____ _____    ______ ____
ROOT
ATOM      1  O   HOH     1      14.418  -4.131   4.806  0.00  0.00    +0.000 OA
ENDROOT
TORSDOF 0
REMARK  Name = ../refined-set-2016/4mrg/4mrg_pocket.pdb
REMARK  98 active torsions:
REMARK  status: ('A' for Active; 'I' for Inactive)
REMARK    1  A    between atoms: _1  and  _3
REMARK    2  A    between atoms: _3  and  _4
REMARK    3  A    between atoms: _3  and  _6
REMARK    4  A    between atoms: _6  and  _7
REMARK    5  A    between atoms: _10  and  _12
REMARK    6  A    between atoms: _12  and  _13
REMARK    7  A    between atoms: _12  and  _15
REMARK    8  A    between atoms: _15  and  _16
REMARK    9  A    between atoms: _21  and  _23
REMARK   10  A    between atoms: _23  and  _24
REMARK   11  A    between atoms: _23  and  _26
REMARK   12  A    between atoms: _29  and  _31
REMARK   13  A    between atoms: _31  and  _32
REMARK   14  A    between atoms: _31  and  _34
REMARK   15  A    between atoms: _34  and  _35
REMARK   16  A    between atoms: _38  and  _40
REMARK   17  A    between atoms: _40  and  _41
REMARK   18  A    between atoms: _40  and  _43
REMARK   19  A    between atoms: _45  and  _47
REMARK   20  A    between atoms: _47  and  _48
REMARK   21  A    between atoms: _47  and  _50
REMARK   22  A    between atoms: _50  and  _51
REMARK   23  A    between atoms: _51  and  _52
REMARK   24  A    between atoms: _52  and  _53
REMARK   25  A    between atoms: _62  and  _64
REMARK   26  A    between atoms: _64  and  _65
REMARK   27  A    between atoms: _64  and  _67
REMARK   28  A    between atoms: _67  and  _68
REMARK   29  A    between atoms: _73  and  _75
REMARK   30  A    between atoms: _75  and  _76
REMARK   31  A    between atoms: _75  and  _78
REMARK   32  A    between atoms: _81  and  _83
REMARK   33  A    between atoms: _83  and  _84
REMARK   34  A    between atoms: _83  and  _86
REMARK   35  A    between atoms: _86  and  _87
REMARK   36  A    between atoms: _87  and  _88
REMARK   37  A    between atoms: _91  and  _93
REMARK   38  A    between atoms: _93  and  _94
REMARK   39  A    between atoms: _93  and  _96
REMARK   40  A    between atoms: _96  and  _97
REMARK   41  A    between atoms: _102  and  _104
REMARK   42  A    between atoms: _104  and  _105
REMARK   43  A    between atoms: _107  and  _109
REMARK   44  A    between atoms: _109  and  _110
REMARK   45  A    between atoms: _109  and  _112
REMARK   46  A    between atoms: _112  and  _113
REMARK   47  A    between atoms: _113  and  _114
REMARK   48  A    between atoms: _114  and  _115
REMARK   49  A    between atoms: _124  and  _126
REMARK   50  A    between atoms: _126  and  _127
REMARK   51  A    between atoms: _126  and  _129
REMARK   52  A    between atoms: _129  and  _130
REMARK   53  A    between atoms: _133  and  _135
REMARK   54  A    between atoms: _135  and  _136
REMARK   55  A    between atoms: _135  and  _138
REMARK   56  A    between atoms: _140  and  _142
REMARK   57  A    between atoms: _142  and  _143
REMARK   58  A    between atoms: _142  and  _145
REMARK   59  A    between atoms: _145  and  _146
REMARK   60  A    between atoms: _146  and  _147
REMARK   61  A    between atoms: _147  and  _148
REMARK   62  A    between atoms: _157  and  _159
REMARK   63  A    between atoms: _159  and  _160
REMARK   64  A    between atoms: _159  and  _162
REMARK   65  A    between atoms: _162  and  _163
REMARK   66  A    between atoms: _166  and  _168
REMARK   67  A    between atoms: _168  and  _169
REMARK   68  A    between atoms: _168  and  _171
REMARK   69  A    between atoms: _171  and  _172
REMARK   70  A    between atoms: _175  and  _177
REMARK   71  A    between atoms: _177  and  _178
REMARK   72  A    between atoms: _177  and  _180
REMARK   73  A    between atoms: _183  and  _185
REMARK   74  A    between atoms: _185  and  _186
REMARK   75  A    between atoms: _185  and  _188
REMARK   76  A    between atoms: _188  and  _189
REMARK   77  A    between atoms: _194  and  _196
REMARK   78  A    between atoms: _196  and  _197
REMARK   79  A    between atoms: _196  and  _199
REMARK   80  A    between atoms: _199  and  _200
REMARK   81  A    between atoms: _200  and  _201
REMARK   82  A    between atoms: _201  and  _202
REMARK   83  A    between atoms: _211  and  _213
REMARK   84  A    between atoms: _213  and  _214
REMARK   85  A    between atoms: _213  and  _216
REMARK   86  A    between atoms: _216  and  _217
REMARK   87  A    between atoms: _220  and  _222
REMARK   88  A    between atoms: _222  and  _223
REMARK   89  A    between atoms: _225  and  _227
REMARK   90  A    between atoms: _227  and  _228
REMARK   91  A    between atoms: _227  and  _230
REMARK   92  A    between atoms: _230  and  _231
REMARK   93  A    between atoms: _234  and  _236
REMARK   94  A    between atoms: _236  and  _237
REMARK   95  A    between atoms: _236  and  _239
REMARK   96  A    between atoms: _239  and  _240
REMARK   97  A    between atoms: _240  and  _241
REMARK   98  A    between atoms: _241  and  _242
REMARK                            x       y       z     vdW  Elec       q    Type
REMARK                         _______ _______ _______ _____ _____    ______ ____
ROOT
ATOM      1  O   HOH     1      15.658  -2.097  -1.979  0.00  0.00    +0.000 OA
ENDROOT
TORSDOF 0
REMARK  Name = ../refined-set-2016/4mrg/4mrg_pocket.pdb
REMARK  98 active torsions:
REMARK  status: ('A' for Active; 'I' for Inactive)
REMARK    1  A    between atoms: _1  and  _3
REMARK    2  A    between atoms: _3  and  _4
REMARK    3  A    between atoms: _3  and  _6
REMARK    4  A    between atoms: _6  and  _7
REMARK    5  A    between atoms: _10  and  _12
REMARK    6  A    between atoms: _12  and  _13
REMARK    7  A    between atoms: _12  and  _15
REMARK    8  A    between atoms: _15  and  _16
REMARK    9  A    between atoms: _21  and  _23
REMARK   10  A    between atoms: _23  and  _24
REMARK   11  A    between atoms: _23  and  _26
REMARK   12  A    between atoms: _29  and  _31
REMARK   13  A    between atoms: _31  and  _32
REMARK   14  A    between atoms: _31  and  _34
REMARK   15  A    between atoms: _34  and  _35
REMARK   16  A    between atoms: _38  and  _40
REMARK   17  A    between atoms: _40  and  _41
REMARK   18  A    between atoms: _40  and  _43
REMARK   19  A    between atoms: _45  and  _47
REMARK   20  A    between atoms: _47  and  _48
REMARK   21  A    between atoms: _47  and  _50
REMARK   22  A    between atoms: _50  and  _51
REMARK   23  A    between atoms: _51  and  _52
REMARK   24  A    between atoms: _52  and  _53
REMARK   25  A    between atoms: _62  and  _64
REMARK   26  A    between atoms: _64  and  _65
REMARK   27  A    between atoms: _64  and  _67
REMARK   28  A    between atoms: _67  and  _68
REMARK   29  A    between atoms: _73  and  _75
REMARK   30  A    between atoms: _75  and  _76
REMARK   31  A    between atoms: _75  and  _78
REMARK   32  A    between atoms: _81  and  _83
REMARK   33  A    between atoms: _83  and  _84
REMARK   34  A    between atoms: _83  and  _86
REMARK   35  A    between atoms: _86  and  _87
REMARK   36  A    between atoms: _87  and  _88
REMARK   37  A    between atoms: _91  and  _93
REMARK   38  A    between atoms: _93  and  _94
REMARK   39  A    between atoms: _93  and  _96
REMARK   40  A    between atoms: _96  and  _97
REMARK   41  A    between atoms: _102  and  _104
REMARK   42  A    between atoms: _104  and  _105
REMARK   43  A    between atoms: _107  and  _109
REMARK   44  A    between atoms: _109  and  _110
REMARK   45  A    between atoms: _109  and  _112
REMARK   46  A    between atoms: _112  and  _113
REMARK   47  A    between atoms: _113  and  _114
REMARK   48  A    between atoms: _114  and  _115
REMARK   49  A    between atoms: _124  and  _126
REMARK   50  A    between atoms: _126  and  _127
REMARK   51  A    between atoms: _126  and  _129
REMARK   52  A    between atoms: _129  and  _130
REMARK   53  A    between atoms: _133  and  _135
REMARK   54  A    between atoms: _135  and  _136
REMARK   55  A    between atoms: _135  and  _138
REMARK   56  A    between atoms: _140  and  _142
REMARK   57  A    between atoms: _142  and  _143
REMARK   58  A    between atoms: _142  and  _145
REMARK   59  A    between atoms: _145  and  _146
REMARK   60  A    between atoms: _146  and  _147
REMARK   61  A    between atoms: _147  and  _148
REMARK   62  A    between atoms: _157  and  _159
REMARK   63  A    between atoms: _159  and  _160
REMARK   64  A    between atoms: _159  and  _162
REMARK   65  A    between atoms: _162  and  _163
REMARK   66  A    between atoms: _166  and  _168
REMARK   67  A    between atoms: _168  and  _169
REMARK   68  A    between atoms: _168  and  _171
REMARK   69  A    between atoms: _171  and  _172
REMARK   70  A    between atoms: _175  and  _177
REMARK   71  A    between atoms: _177  and  _178
REMARK   72  A    between atoms: _177  and  _180
REMARK   73  A    between atoms: _183  and  _185
REMARK   74  A    between atoms: _185  and  _186
REMARK   75  A    between atoms: _185  and  _188
REMARK   76  A    between atoms: _188  and  _189
REMARK   77  A    between atoms: _194  and  _196
REMARK   78  A    between atoms: _196  and  _197
REMARK   79  A    between atoms: _196  and  _199
REMARK   80  A    between atoms: _199  and  _200
REMARK   81  A    between atoms: _200  and  _201
REMARK   82  A    between atoms: _201  and  _202
REMARK   83  A    between atoms: _211  and  _213
REMARK   84  A    between atoms: _213  and  _214
REMARK   85  A    between atoms: _213  and  _216
REMARK   86  A    between atoms: _216  and  _217
REMARK   87  A    between atoms: _220  and  _222
REMARK   88  A    between atoms: _222  and  _223
REMARK   89  A    between atoms: _225  and  _227
REMARK   90  A    between atoms: _227  and  _228
REMARK   91  A    between atoms: _227  and  _230
REMARK   92  A    between atoms: _230  and  _231
REMARK   93  A    between atoms: _234  and  _236
REMARK   94  A    between atoms: _236  and  _237
REMARK   95  A    between atoms: _236  and  _239
REMARK   96  A    between atoms: _239  and  _240
REMARK   97  A    between atoms: _240  and  _241
REMARK   98  A    between atoms: _241  and  _242
REMARK                            x       y       z     vdW  Elec       q    Type
REMARK                         _______ _______ _______ _____ _____    ______ ____
ROOT
ATOM      1  O   HOH     1       7.302  -3.174  -6.650  0.00  0.00    +0.000 OA
ENDROOT
TORSDOF 0
REMARK  Name = ../refined-set-2016/4mrg/4mrg_pocket.pdb
REMARK  98 active torsions:
REMARK  status: ('A' for Active; 'I' for Inactive)
REMARK    1  A    between atoms: _1  and  _3
REMARK    2  A    between atoms: _3  and  _4
REMARK    3  A    between atoms: _3  and  _6
REMARK    4  A    between atoms: _6  and  _7
REMARK    5  A    between atoms: _10  and  _12
REMARK    6  A    between atoms: _12  and  _13
REMARK    7  A    between atoms: _12  and  _15
REMARK    8  A    between atoms: _15  and  _16
REMARK    9  A    between atoms: _21  and  _23
REMARK   10  A    between atoms: _23  and  _24
REMARK   11  A    between atoms: _23  and  _26
REMARK   12  A    between atoms: _29  and  _31
REMARK   13  A    between atoms: _31  and  _32
REMARK   14  A    between atoms: _31  and  _34
REMARK   15  A    between atoms: _34  and  _35
REMARK   16  A    between atoms: _38  and  _40
REMARK   17  A    between atoms: _40  and  _41
REMARK   18  A    between atoms: _40  and  _43
REMARK   19  A    between atoms: _45  and  _47
REMARK   20  A    between atoms: _47  and  _48
REMARK   21  A    between atoms: _47  and  _50
REMARK   22  A    between atoms: _50  and  _51
REMARK   23  A    between atoms: _51  and  _52
REMARK   24  A    between atoms: _52  and  _53
REMARK   25  A    between atoms: _62  and  _64
REMARK   26  A    between atoms: _64  and  _65
REMARK   27  A    between atoms: _64  and  _67
REMARK   28  A    between atoms: _67  and  _68
REMARK   29  A    between atoms: _73  and  _75
REMARK   30  A    between atoms: _75  and  _76
REMARK   31  A    between atoms: _75  and  _78
REMARK   32  A    between atoms: _81  and  _83
REMARK   33  A    between atoms: _83  and  _84
REMARK   34  A    between atoms: _83  and  _86
REMARK   35  A    between atoms: _86  and  _87
REMARK   36  A    between atoms: _87  and  _88
REMARK   37  A    between atoms: _91  and  _93
REMARK   38  A    between atoms: _93  and  _94
REMARK   39  A    between atoms: _93  and  _96
REMARK   40  A    between atoms: _96  and  _97
REMARK   41  A    between atoms: _102  and  _104
REMARK   42  A    between atoms: _104  and  _105
REMARK   43  A    between atoms: _107  and  _109
REMARK   44  A    between atoms: _109  and  _110
REMARK   45  A    between atoms: _109  and  _112
REMARK   46  A    between atoms: _112  and  _113
REMARK   47  A    between atoms: _113  and  _114
REMARK   48  A    between atoms: _114  and  _115
REMARK   49  A    between atoms: _124  and  _126
REMARK   50  A    between atoms: _126  and  _127
REMARK   51  A    between atoms: _126  and  _129
REMARK   52  A    between atoms: _129  and  _130
REMARK   53  A    between atoms: _133  and  _135
REMARK   54  A    between atoms: _135  and  _136
REMARK   55  A    between atoms: _135  and  _138
REMARK   56  A    between atoms: _140  and  _142
REMARK   57  A    between atoms: _142  and  _143
REMARK   58  A    between atoms: _142  and  _145
REMARK   59  A    between atoms: _145  and  _146
REMARK   60  A    between atoms: _146  and  _147
REMARK   61  A    between atoms: _147  and  _148
REMARK   62  A    between atoms: _157  and  _159
REMARK   63  A    between atoms: _159  and  _160
REMARK   64  A    between atoms: _159  and  _162
REMARK   65  A    between atoms: _162  and  _163
REMARK   66  A    between atoms: _166  and  _168
REMARK   67  A    between atoms: _168  and  _169
REMARK   68  A    between atoms: _168  and  _171
REMARK   69  A    between atoms: _171  and  _172
REMARK   70  A    between atoms: _175  and  _177
REMARK   71  A    between atoms: _177  and  _178
REMARK   72  A    between atoms: _177  and  _180
REMARK   73  A    between atoms: _183  and  _185
REMARK   74  A    between atoms: _185  and  _186
REMARK   75  A    between atoms: _185  and  _188
REMARK   76  A    between atoms: _188  and  _189
REMARK   77  A    between atoms: _194  and  _196
REMARK   78  A    between atoms: _196  and  _197
REMARK   79  A    between atoms: _196  and  _199
REMARK   80  A    between atoms: _199  and  _200
REMARK   81  A    between atoms: _200  and  _201
REMARK   82  A    between atoms: _201  and  _202
REMARK   83  A    between atoms: _211  and  _213
REMARK   84  A    between atoms: _213  and  _214
REMARK   85  A    between atoms: _213  and  _216
REMARK   86  A    between atoms: _216  and  _217
REMARK   87  A    between atoms: _220  and  _222
REMARK   88  A    between atoms: _222  and  _223
REMARK   89  A    between atoms: _225  and  _227
REMARK   90  A    between atoms: _227  and  _228
REMARK   91  A    between atoms: _227  and  _230
REMARK   92  A    between atoms: _230  and  _231
REMARK   93  A    between atoms: _234  and  _236
REMARK   94  A    between atoms: _236  and  _237
REMARK   95  A    between atoms: _236  and  _239
REMARK   96  A    between atoms: _239  and  _240
REMARK   97  A    between atoms: _240  and  _241
REMARK   98  A    between atoms: _241  and  _242
REMARK                            x       y       z     vdW  Elec       q    Type
REMARK                         _______ _______ _______ _____ _____    ______ ____
ROOT
ATOM      1  O   HOH     1      10.782  -8.788   8.504  0.00  0.00    +0.000 OA
ENDROOT
TORSDOF 0
REMARK  Name = ../refined-set-2016/4mrg/4mrg_pocket.pdb
REMARK  98 active torsions:
REMARK  status: ('A' for Active; 'I' for Inactive)
REMARK    1  A    between atoms: _1  and  _3
REMARK    2  A    between atoms: _3  and  _4
REMARK    3  A    between atoms: _3  and  _6
REMARK    4  A    between atoms: _6  and  _7
REMARK    5  A    between atoms: _10  and  _12
REMARK    6  A    between atoms: _12  and  _13
REMARK    7  A    between atoms: _12  and  _15
REMARK    8  A    between atoms: _15  and  _16
REMARK    9  A    between atoms: _21  and  _23
REMARK   10  A    between atoms: _23  and  _24
REMARK   11  A    between atoms: _23  and  _26
REMARK   12  A    between atoms: _29  and  _31
REMARK   13  A    between atoms: _31  and  _32
REMARK   14  A    between atoms: _31  and  _34
REMARK   15  A    between atoms: _34  and  _35
REMARK   16  A    between atoms: _38  and  _40
REMARK   17  A    between atoms: _40  and  _41
REMARK   18  A    between atoms: _40  and  _43
REMARK   19  A    between atoms: _45  and  _47
REMARK   20  A    between atoms: _47  and  _48
REMARK   21  A    between atoms: _47  and  _50
REMARK   22  A    between atoms: _50  and  _51
REMARK   23  A    between atoms: _51  and  _52
REMARK   24  A    between atoms: _52  and  _53
REMARK   25  A    between atoms: _62  and  _64
REMARK   26  A    between atoms: _64  and  _65
REMARK   27  A    between atoms: _64  and  _67
REMARK   28  A    between atoms: _67  and  _68
REMARK   29  A    between atoms: _73  and  _75
REMARK   30  A    between atoms: _75  and  _76
REMARK   31  A    between atoms: _75  and  _78
REMARK   32  A    between atoms: _81  and  _83
REMARK   33  A    between atoms: _83  and  _84
REMARK   34  A    between atoms: _83  and  _86
REMARK   35  A    between atoms: _86  and  _87
REMARK   36  A    between atoms: _87  and  _88
REMARK   37  A    between atoms: _91  and  _93
REMARK   38  A    between atoms: _93  and  _94
REMARK   39  A    between atoms: _93  and  _96
REMARK   40  A    between atoms: _96  and  _97
REMARK   41  A    between atoms: _102  and  _104
REMARK   42  A    between atoms: _104  and  _105
REMARK   43  A    between atoms: _107  and  _109
REMARK   44  A    between atoms: _109  and  _110
REMARK   45  A    between atoms: _109  and  _112
REMARK   46  A    between atoms: _112  and  _113
REMARK   47  A    between atoms: _113  and  _114
REMARK   48  A    between atoms: _114  and  _115
REMARK   49  A    between atoms: _124  and  _126
REMARK   50  A    between atoms: _126  and  _127
REMARK   51  A    between atoms: _126  and  _129
REMARK   52  A    between atoms: _129  and  _130
REMARK   53  A    between atoms: _133  and  _135
REMARK   54  A    between atoms: _135  and  _136
REMARK   55  A    between atoms: _135  and  _138
REMARK   56  A    between atoms: _140  and  _142
REMARK   57  A    between atoms: _142  and  _143
REMARK   58  A    between atoms: _142  and  _145
REMARK   59  A    between atoms: _145  and  _146
REMARK   60  A    between atoms: _146  and  _147
REMARK   61  A    between atoms: _147  and  _148
REMARK   62  A    between atoms: _157  and  _159
REMARK   63  A    between atoms: _159  and  _160
REMARK   64  A    between atoms: _159  and  _162
REMARK   65  A    between atoms: _162  and  _163
REMARK   66  A    between atoms: _166  and  _168
REMARK   67  A    between atoms: _168  and  _169
REMARK   68  A    between atoms: _168  and  _171
REMARK   69  A    between atoms: _171  and  _172
REMARK   70  A    between atoms: _175  and  _177
REMARK   71  A    between atoms: _177  and  _178
REMARK   72  A    between atoms: _177  and  _180
REMARK   73  A    between atoms: _183  and  _185
REMARK   74  A    between atoms: _185  and  _186
REMARK   75  A    between atoms: _185  and  _188
REMARK   76  A    between atoms: _188  and  _189
REMARK   77  A    between atoms: _194  and  _196
REMARK   78  A    between atoms: _196  and  _197
REMARK   79  A    between atoms: _196  and  _199
REMARK   80  A    between atoms: _199  and  _200
REMARK   81  A    between atoms: _200  and  _201
REMARK   82  A    between atoms: _201  and  _202
REMARK   83  A    between atoms: _211  and  _213
REMARK   84  A    between atoms: _213  and  _214
REMARK   85  A    between atoms: _213  and  _216
REMARK   86  A    between atoms: _216  and  _217
REMARK   87  A    between atoms: _220  and  _222
REMARK   88  A    between atoms: _222  and  _223
REMARK   89  A    between atoms: _225  and  _227
REMARK   90  A    between atoms: _227  and  _228
REMARK   91  A    between atoms: _227  and  _230
REMARK   92  A    between atoms: _230  and  _231
REMARK   93  A    between atoms: _234  and  _236
REMARK   94  A    between atoms: _236  and  _237
REMARK   95  A    between atoms: _236  and  _239
REMARK   96  A    between atoms: _239  and  _240
REMARK   97  A    between atoms: _240  and  _241
REMARK   98  A    between atoms: _241  and  _242
REMARK                            x       y       z     vdW  Elec       q    Type
REMARK                         _______ _______ _______ _____ _____    ______ ____
ROOT
ATOM      1  O   HOH     1       9.677 -10.414   6.740  0.00  0.00    +0.000 OA
ENDROOT
TORSDOF 0
REMARK  Name = ../refined-set-2016/4mrg/4mrg_pocket.pdb
REMARK  98 active torsions:
REMARK  status: ('A' for Active; 'I' for Inactive)
REMARK    1  A    between atoms: _1  and  _3
REMARK    2  A    between atoms: _3  and  _4
REMARK    3  A    between atoms: _3  and  _6
REMARK    4  A    between atoms: _6  and  _7
REMARK    5  A    between atoms: _10  and  _12
REMARK    6  A    between atoms: _12  and  _13
REMARK    7  A    between atoms: _12  and  _15
REMARK    8  A    between atoms: _15  and  _16
REMARK    9  A    between atoms: _21  and  _23
REMARK   10  A    between atoms: _23  and  _24
REMARK   11  A    between atoms: _23  and  _26
REMARK   12  A    between atoms: _29  and  _31
REMARK   13  A    between atoms: _31  and  _32
REMARK   14  A    between atoms: _31  and  _34
REMARK   15  A    between atoms: _34  and  _35
REMARK   16  A    between atoms: _38  and  _40
REMARK   17  A    between atoms: _40  and  _41
REMARK   18  A    between atoms: _40  and  _43
REMARK   19  A    between atoms: _45  and  _47
REMARK   20  A    between atoms: _47  and  _48
REMARK   21  A    between atoms: _47  and  _50
REMARK   22  A    between atoms: _50  and  _51
REMARK   23  A    between atoms: _51  and  _52
REMARK   24  A    between atoms: _52  and  _53
REMARK   25  A    between atoms: _62  and  _64
REMARK   26  A    between atoms: _64  and  _65
REMARK   27  A    between atoms: _64  and  _67
REMARK   28  A    between atoms: _67  and  _68
REMARK   29  A    between atoms: _73  and  _75
REMARK   30  A    between atoms: _75  and  _76
REMARK   31  A    between atoms: _75  and  _78
REMARK   32  A    between atoms: _81  and  _83
REMARK   33  A    between atoms: _83  and  _84
REMARK   34  A    between atoms: _83  and  _86
REMARK   35  A    between atoms: _86  and  _87
REMARK   36  A    between atoms: _87  and  _88
REMARK   37  A    between atoms: _91  and  _93
REMARK   38  A    between atoms: _93  and  _94
REMARK   39  A    between atoms: _93  and  _96
REMARK   40  A    between atoms: _96  and  _97
REMARK   41  A    between atoms: _102  and  _104
REMARK   42  A    between atoms: _104  and  _105
REMARK   43  A    between atoms: _107  and  _109
REMARK   44  A    between atoms: _109  and  _110
REMARK   45  A    between atoms: _109  and  _112
REMARK   46  A    between atoms: _112  and  _113
REMARK   47  A    between atoms: _113  and  _114
REMARK   48  A    between atoms: _114  and  _115
REMARK   49  A    between atoms: _124  and  _126
REMARK   50  A    between atoms: _126  and  _127
REMARK   51  A    between atoms: _126  and  _129
REMARK   52  A    between atoms: _129  and  _130
REMARK   53  A    between atoms: _133  and  _135
REMARK   54  A    between atoms: _135  and  _136
REMARK   55  A    between atoms: _135  and  _138
REMARK   56  A    between atoms: _140  and  _142
REMARK   57  A    between atoms: _142  and  _143
REMARK   58  A    between atoms: _142  and  _145
REMARK   59  A    between atoms: _145  and  _146
REMARK   60  A    between atoms: _146  and  _147
REMARK   61  A    between atoms: _147  and  _148
REMARK   62  A    between atoms: _157  and  _159
REMARK   63  A    between atoms: _159  and  _160
REMARK   64  A    between atoms: _159  and  _162
REMARK   65  A    between atoms: _162  and  _163
REMARK   66  A    between atoms: _166  and  _168
REMARK   67  A    between atoms: _168  and  _169
REMARK   68  A    between atoms: _168  and  _171
REMARK   69  A    between atoms: _171  and  _172
REMARK   70  A    between atoms: _175  and  _177
REMARK   71  A    between atoms: _177  and  _178
REMARK   72  A    between atoms: _177  and  _180
REMARK   73  A    between atoms: _183  and  _185
REMARK   74  A    between atoms: _185  and  _186
REMARK   75  A    between atoms: _185  and  _188
REMARK   76  A    between atoms: _188  and  _189
REMARK   77  A    between atoms: _194  and  _196
REMARK   78  A    between atoms: _196  and  _197
REMARK   79  A    between atoms: _196  and  _199
REMARK   80  A    between atoms: _199  and  _200
REMARK   81  A    between atoms: _200  and  _201
REMARK   82  A    between atoms: _201  and  _202
REMARK   83  A    between atoms: _211  and  _213
REMARK   84  A    between atoms: _213  and  _214
REMARK   85  A    between atoms: _213  and  _216
REMARK   86  A    between atoms: _216  and  _217
REMARK   87  A    between atoms: _220  and  _222
REMARK   88  A    between atoms: _222  and  _223
REMARK   89  A    between atoms: _225  and  _227
REMARK   90  A    between atoms: _227  and  _228
REMARK   91  A    between atoms: _227  and  _230
REMARK   92  A    between atoms: _230  and  _231
REMARK   93  A    between atoms: _234  and  _236
REMARK   94  A    between atoms: _236  and  _237
REMARK   95  A    between atoms: _236  and  _239
REMARK   96  A    between atoms: _239  and  _240
REMARK   97  A    between atoms: _240  and  _241
REMARK   98  A    between atoms: _241  and  _242
REMARK                            x       y       z     vdW  Elec       q    Type
REMARK                         _______ _______ _______ _____ _____    ______ ____
ROOT
ATOM      1  O   HOH     1      13.706  -4.343   8.994  0.00  0.00    +0.000 OA
ENDROOT
TORSDOF 0
REMARK  Name = ../refined-set-2016/4mrg/4mrg_pocket.pdb
REMARK  98 active torsions:
REMARK  status: ('A' for Active; 'I' for Inactive)
REMARK    1  A    between atoms: _1  and  _3
REMARK    2  A    between atoms: _3  and  _4
REMARK    3  A    between atoms: _3  and  _6
REMARK    4  A    between atoms: _6  and  _7
REMARK    5  A    between atoms: _10  and  _12
REMARK    6  A    between atoms: _12  and  _13
REMARK    7  A    between atoms: _12  and  _15
REMARK    8  A    between atoms: _15  and  _16
REMARK    9  A    between atoms: _21  and  _23
REMARK   10  A    between atoms: _23  and  _24
REMARK   11  A    between atoms: _23  and  _26
REMARK   12  A    between atoms: _29  and  _31
REMARK   13  A    between atoms: _31  and  _32
REMARK   14  A    between atoms: _31  and  _34
REMARK   15  A    between atoms: _34  and  _35
REMARK   16  A    between atoms: _38  and  _40
REMARK   17  A    between atoms: _40  and  _41
REMARK   18  A    between atoms: _40  and  _43
REMARK   19  A    between atoms: _45  and  _47
REMARK   20  A    between atoms: _47  and  _48
REMARK   21  A    between atoms: _47  and  _50
REMARK   22  A    between atoms: _50  and  _51
REMARK   23  A    between atoms: _51  and  _52
REMARK   24  A    between atoms: _52  and  _53
REMARK   25  A    between atoms: _62  and  _64
REMARK   26  A    between atoms: _64  and  _65
REMARK   27  A    between atoms: _64  and  _67
REMARK   28  A    between atoms: _67  and  _68
REMARK   29  A    between atoms: _73  and  _75
REMARK   30  A    between atoms: _75  and  _76
REMARK   31  A    between atoms: _75  and  _78
REMARK   32  A    between atoms: _81  and  _83
REMARK   33  A    between atoms: _83  and  _84
REMARK   34  A    between atoms: _83  and  _86
REMARK   35  A    between atoms: _86  and  _87
REMARK   36  A    between atoms: _87  and  _88
REMARK   37  A    between atoms: _91  and  _93
REMARK   38  A    between atoms: _93  and  _94
REMARK   39  A    between atoms: _93  and  _96
REMARK   40  A    between atoms: _96  and  _97
REMARK   41  A    between atoms: _102  and  _104
REMARK   42  A    between atoms: _104  and  _105
REMARK   43  A    between atoms: _107  and  _109
REMARK   44  A    between atoms: _109  and  _110
REMARK   45  A    between atoms: _109  and  _112
REMARK   46  A    between atoms: _112  and  _113
REMARK   47  A    between atoms: _113  and  _114
REMARK   48  A    between atoms: _114  and  _115
REMARK   49  A    between atoms: _124  and  _126
REMARK   50  A    between atoms: _126  and  _127
REMARK   51  A    between atoms: _126  and  _129
REMARK   52  A    between atoms: _129  and  _130
REMARK   53  A    between atoms: _133  and  _135
REMARK   54  A    between atoms: _135  and  _136
REMARK   55  A    between atoms: _135  and  _138
REMARK   56  A    between atoms: _140  and  _142
REMARK   57  A    between atoms: _142  and  _143
REMARK   58  A    between atoms: _142  and  _145
REMARK   59  A    between atoms: _145  and  _146
REMARK   60  A    between atoms: _146  and  _147
REMARK   61  A    between atoms: _147  and  _148
REMARK   62  A    between atoms: _157  and  _159
REMARK   63  A    between atoms: _159  and  _160
REMARK   64  A    between atoms: _159  and  _162
REMARK   65  A    between atoms: _162  and  _163
REMARK   66  A    between atoms: _166  and  _168
REMARK   67  A    between atoms: _168  and  _169
REMARK   68  A    between atoms: _168  and  _171
REMARK   69  A    between atoms: _171  and  _172
REMARK   70  A    between atoms: _175  and  _177
REMARK   71  A    between atoms: _177  and  _178
REMARK   72  A    between atoms: _177  and  _180
REMARK   73  A    between atoms: _183  and  _185
REMARK   74  A    between atoms: _185  and  _186
REMARK   75  A    between atoms: _185  and  _188
REMARK   76  A    between atoms: _188  and  _189
REMARK   77  A    between atoms: _194  and  _196
REMARK   78  A    between atoms: _196  and  _197
REMARK   79  A    between atoms: _196  and  _199
REMARK   80  A    between atoms: _199  and  _200
REMARK   81  A    between atoms: _200  and  _201
REMARK   82  A    between atoms: _201  and  _202
REMARK   83  A    between atoms: _211  and  _213
REMARK   84  A    between atoms: _213  and  _214
REMARK   85  A    between atoms: _213  and  _216
REMARK   86  A    between atoms: _216  and  _217
REMARK   87  A    between atoms: _220  and  _222
REMARK   88  A    between atoms: _222  and  _223
REMARK   89  A    between atoms: _225  and  _227
REMARK   90  A    between atoms: _227  and  _228
REMARK   91  A    between atoms: _227  and  _230
REMARK   92  A    between atoms: _230  and  _231
REMARK   93  A    between atoms: _234  and  _236
REMARK   94  A    between atoms: _236  and  _237
REMARK   95  A    between atoms: _236  and  _239
REMARK   96  A    between atoms: _239  and  _240
REMARK   97  A    between atoms: _240  and  _241
REMARK   98  A    between atoms: _241  and  _242
REMARK                            x       y       z     vdW  Elec       q    Type
REMARK                         _______ _______ _______ _____ _____    ______ ____
ROOT
ATOM      1  O   HOH     1       8.283 -10.373  -5.019  0.00  0.00    +0.000 OA
ENDROOT
TORSDOF 0
REMARK  Name = ../refined-set-2016/4mrg/4mrg_pocket.pdb
REMARK  98 active torsions:
REMARK  status: ('A' for Active; 'I' for Inactive)
REMARK    1  A    between atoms: _1  and  _3
REMARK    2  A    between atoms: _3  and  _4
REMARK    3  A    between atoms: _3  and  _6
REMARK    4  A    between atoms: _6  and  _7
REMARK    5  A    between atoms: _10  and  _12
REMARK    6  A    between atoms: _12  and  _13
REMARK    7  A    between atoms: _12  and  _15
REMARK    8  A    between atoms: _15  and  _16
REMARK    9  A    between atoms: _21  and  _23
REMARK   10  A    between atoms: _23  and  _24
REMARK   11  A    between atoms: _23  and  _26
REMARK   12  A    between atoms: _29  and  _31
REMARK   13  A    between atoms: _31  and  _32
REMARK   14  A    between atoms: _31  and  _34
REMARK   15  A    between atoms: _34  and  _35
REMARK   16  A    between atoms: _38  and  _40
REMARK   17  A    between atoms: _40  and  _41
REMARK   18  A    between atoms: _40  and  _43
REMARK   19  A    between atoms: _45  and  _47
REMARK   20  A    between atoms: _47  and  _48
REMARK   21  A    between atoms: _47  and  _50
REMARK   22  A    between atoms: _50  and  _51
REMARK   23  A    between atoms: _51  and  _52
REMARK   24  A    between atoms: _52  and  _53
REMARK   25  A    between atoms: _62  and  _64
REMARK   26  A    between atoms: _64  and  _65
REMARK   27  A    between atoms: _64  and  _67
REMARK   28  A    between atoms: _67  and  _68
REMARK   29  A    between atoms: _73  and  _75
REMARK   30  A    between atoms: _75  and  _76
REMARK   31  A    between atoms: _75  and  _78
REMARK   32  A    between atoms: _81  and  _83
REMARK   33  A    between atoms: _83  and  _84
REMARK   34  A    between atoms: _83  and  _86
REMARK   35  A    between atoms: _86  and  _87
REMARK   36  A    between atoms: _87  and  _88
REMARK   37  A    between atoms: _91  and  _93
REMARK   38  A    between atoms: _93  and  _94
REMARK   39  A    between atoms: _93  and  _96
REMARK   40  A    between atoms: _96  and  _97
REMARK   41  A    between atoms: _102  and  _104
REMARK   42  A    between atoms: _104  and  _105
REMARK   43  A    between atoms: _107  and  _109
REMARK   44  A    between atoms: _109  and  _110
REMARK   45  A    between atoms: _109  and  _112
REMARK   46  A    between atoms: _112  and  _113
REMARK   47  A    between atoms: _113  and  _114
REMARK   48  A    between atoms: _114  and  _115
REMARK   49  A    between atoms: _124  and  _126
REMARK   50  A    between atoms: _126  and  _127
REMARK   51  A    between atoms: _126  and  _129
REMARK   52  A    between atoms: _129  and  _130
REMARK   53  A    between atoms: _133  and  _135
REMARK   54  A    between atoms: _135  and  _136
REMARK   55  A    between atoms: _135  and  _138
REMARK   56  A    between atoms: _140  and  _142
REMARK   57  A    between atoms: _142  and  _143
REMARK   58  A    between atoms: _142  and  _145
REMARK   59  A    between atoms: _145  and  _146
REMARK   60  A    between atoms: _146  and  _147
REMARK   61  A    between atoms: _147  and  _148
REMARK   62  A    between atoms: _157  and  _159
REMARK   63  A    between atoms: _159  and  _160
REMARK   64  A    between atoms: _159  and  _162
REMARK   65  A    between atoms: _162  and  _163
REMARK   66  A    between atoms: _166  and  _168
REMARK   67  A    between atoms: _168  and  _169
REMARK   68  A    between atoms: _168  and  _171
REMARK   69  A    between atoms: _171  and  _172
REMARK   70  A    between atoms: _175  and  _177
REMARK   71  A    between atoms: _177  and  _178
REMARK   72  A    between atoms: _177  and  _180
REMARK   73  A    between atoms: _183  and  _185
REMARK   74  A    between atoms: _185  and  _186
REMARK   75  A    between atoms: _185  and  _188
REMARK   76  A    between atoms: _188  and  _189
REMARK   77  A    between atoms: _194  and  _196
REMARK   78  A    between atoms: _196  and  _197
REMARK   79  A    between atoms: _196  and  _199
REMARK   80  A    between atoms: _199  and  _200
REMARK   81  A    between atoms: _200  and  _201
REMARK   82  A    between atoms: _201  and  _202
REMARK   83  A    between atoms: _211  and  _213
REMARK   84  A    between atoms: _213  and  _214
REMARK   85  A    between atoms: _213  and  _216
REMARK   86  A    between atoms: _216  and  _217
REMARK   87  A    between atoms: _220  and  _222
REMARK   88  A    between atoms: _222  and  _223
REMARK   89  A    between atoms: _225  and  _227
REMARK   90  A    between atoms: _227  and  _228
REMARK   91  A    between atoms: _227  and  _230
REMARK   92  A    between atoms: _230  and  _231
REMARK   93  A    between atoms: _234  and  _236
REMARK   94  A    between atoms: _236  and  _237
REMARK   95  A    between atoms: _236  and  _239
REMARK   96  A    between atoms: _239  and  _240
REMARK   97  A    between atoms: _240  and  _241
REMARK   98  A    between atoms: _241  and  _242
REMARK                            x       y       z     vdW  Elec       q    Type
REMARK                         _______ _______ _______ _____ _____    ______ ____
ROOT
ATOM      1  O   HOH     1      16.628  -9.395   6.116  0.00  0.00    +0.000 OA
ENDROOT
TORSDOF 0
REMARK  Name = ../refined-set-2016/4mrg/4mrg_pocket.pdb
REMARK  98 active torsions:
REMARK  status: ('A' for Active; 'I' for Inactive)
REMARK    1  A    between atoms: _1  and  _3
REMARK    2  A    between atoms: _3  and  _4
REMARK    3  A    between atoms: _3  and  _6
REMARK    4  A    between atoms: _6  and  _7
REMARK    5  A    between atoms: _10  and  _12
REMARK    6  A    between atoms: _12  and  _13
REMARK    7  A    between atoms: _12  and  _15
REMARK    8  A    between atoms: _15  and  _16
REMARK    9  A    between atoms: _21  and  _23
REMARK   10  A    between atoms: _23  and  _24
REMARK   11  A    between atoms: _23  and  _26
REMARK   12  A    between atoms: _29  and  _31
REMARK   13  A    between atoms: _31  and  _32
REMARK   14  A    between atoms: _31  and  _34
REMARK   15  A    between atoms: _34  and  _35
REMARK   16  A    between atoms: _38  and  _40
REMARK   17  A    between atoms: _40  and  _41
REMARK   18  A    between atoms: _40  and  _43
REMARK   19  A    between atoms: _45  and  _47
REMARK   20  A    between atoms: _47  and  _48
REMARK   21  A    between atoms: _47  and  _50
REMARK   22  A    between atoms: _50  and  _51
REMARK   23  A    between atoms: _51  and  _52
REMARK   24  A    between atoms: _52  and  _53
REMARK   25  A    between atoms: _62  and  _64
REMARK   26  A    between atoms: _64  and  _65
REMARK   27  A    between atoms: _64  and  _67
REMARK   28  A    between atoms: _67  and  _68
REMARK   29  A    between atoms: _73  and  _75
REMARK   30  A    between atoms: _75  and  _76
REMARK   31  A    between atoms: _75  and  _78
REMARK   32  A    between atoms: _81  and  _83
REMARK   33  A    between atoms: _83  and  _84
REMARK   34  A    between atoms: _83  and  _86
REMARK   35  A    between atoms: _86  and  _87
REMARK   36  A    between atoms: _87  and  _88
REMARK   37  A    between atoms: _91  and  _93
REMARK   38  A    between atoms: _93  and  _94
REMARK   39  A    between atoms: _93  and  _96
REMARK   40  A    between atoms: _96  and  _97
REMARK   41  A    between atoms: _102  and  _104
REMARK   42  A    between atoms: _104  and  _105
REMARK   43  A    between atoms: _107  and  _109
REMARK   44  A    between atoms: _109  and  _110
REMARK   45  A    between atoms: _109  and  _112
REMARK   46  A    between atoms: _112  and  _113
REMARK   47  A    between atoms: _113  and  _114
REMARK   48  A    between atoms: _114  and  _115
REMARK   49  A    between atoms: _124  and  _126
REMARK   50  A    between atoms: _126  and  _127
REMARK   51  A    between atoms: _126  and  _129
REMARK   52  A    between atoms: _129  and  _130
REMARK   53  A    between atoms: _133  and  _135
REMARK   54  A    between atoms: _135  and  _136
REMARK   55  A    between atoms: _135  and  _138
REMARK   56  A    between atoms: _140  and  _142
REMARK   57  A    between atoms: _142  and  _143
REMARK   58  A    between atoms: _142  and  _145
REMARK   59  A    between atoms: _145  and  _146
REMARK   60  A    between atoms: _146  and  _147
REMARK   61  A    between atoms: _147  and  _148
REMARK   62  A    between atoms: _157  and  _159
REMARK   63  A    between atoms: _159  and  _160
REMARK   64  A    between atoms: _159  and  _162
REMARK   65  A    between atoms: _162  and  _163
REMARK   66  A    between atoms: _166  and  _168
REMARK   67  A    between atoms: _168  and  _169
REMARK   68  A    between atoms: _168  and  _171
REMARK   69  A    between atoms: _171  and  _172
REMARK   70  A    between atoms: _175  and  _177
REMARK   71  A    between atoms: _177  and  _178
REMARK   72  A    between atoms: _177  and  _180
REMARK   73  A    between atoms: _183  and  _185
REMARK   74  A    between atoms: _185  and  _186
REMARK   75  A    between atoms: _185  and  _188
REMARK   76  A    between atoms: _188  and  _189
REMARK   77  A    between atoms: _194  and  _196
REMARK   78  A    between atoms: _196  and  _197
REMARK   79  A    between atoms: _196  and  _199
REMARK   80  A    between atoms: _199  and  _200
REMARK   81  A    between atoms: _200  and  _201
REMARK   82  A    between atoms: _201  and  _202
REMARK   83  A    between atoms: _211  and  _213
REMARK   84  A    between atoms: _213  and  _214
REMARK   85  A    between atoms: _213  and  _216
REMARK   86  A    between atoms: _216  and  _217
REMARK   87  A    between atoms: _220  and  _222
REMARK   88  A    between atoms: _222  and  _223
REMARK   89  A    between atoms: _225  and  _227
REMARK   90  A    between atoms: _227  and  _228
REMARK   91  A    between atoms: _227  and  _230
REMARK   92  A    between atoms: _230  and  _231
REMARK   93  A    between atoms: _234  and  _236
REMARK   94  A    between atoms: _236  and  _237
REMARK   95  A    between atoms: _236  and  _239
REMARK   96  A    between atoms: _239  and  _240
REMARK   97  A    between atoms: _240  and  _241
REMARK   98  A    between atoms: _241  and  _242
REMARK                            x       y       z     vdW  Elec       q    Type
REMARK                         _______ _______ _______ _____ _____    ______ ____
ROOT
ATOM      1  O   HOH     1      15.661  -7.349   8.134  0.00  0.00    +0.000 OA
ENDROOT
TORSDOF 0
