REMARK  Name = ../refined-set-2016/4avi/4avi_pocket.pdb
REMARK  112 active torsions:
REMARK  status: ('A' for Active; 'I' for Inactive)
REMARK    1  A    between atoms: _1  and  _5
REMARK    2  A    between atoms: _5  and  _6
REMARK    3  A    between atoms: _5  and  _8
REMARK    4  A    between atoms: _8  and  _9
REMARK    5  A    between atoms: _15  and  _17
REMARK    6  A    between atoms: _17  and  _18
REMARK    7  A    between atoms: _22  and  _23
REMARK    8  A    between atoms: _28  and  _30
REMARK    9  A    between atoms: _30  and  _31
REMARK   10  A    between atoms: _30  and  _33
REMARK   11  A    between atoms: _33  and  _34
REMARK   12  A    between atoms: _37  and  _39
REMARK   13  A    between atoms: _39  and  _40
REMARK   14  A    between atoms: _42  and  _44
REMARK   15  A    between atoms: _44  and  _45
REMARK   16  A    between atoms: _47  and  _49
REMARK   17  A    between atoms: _60  and  _63
REMARK   18  A    between atoms: _63  and  _64
REMARK   19  A    between atoms: _71  and  _72
REMARK   20  A    between atoms: _78  and  _80
REMARK   21  A    between atoms: _80  and  _81
REMARK   22  A    between atoms: _80  and  _83
REMARK   23  A    between atoms: _83  and  _84
REMARK   24  A    between atoms: _89  and  _90
REMARK   25  A    between atoms: _93  and  _94
REMARK   26  A    between atoms: _99  and  _101
REMARK   27  A    between atoms: _101  and  _102
REMARK   28  A    between atoms: _101  and  _104
REMARK   29  A    between atoms: _104  and  _105
REMARK   30  A    between atoms: _105  and  _106
REMARK   31  A    between atoms: _109  and  _111
REMARK   32  A    between atoms: _111  and  _112
REMARK   33  A    between atoms: _111  and  _114
REMARK   34  A    between atoms: _114  and  _115
REMARK   35  A    between atoms: _118  and  _120
REMARK   36  A    between atoms: _120  and  _121
REMARK   37  A    between atoms: _120  and  _123
REMARK   38  A    between atoms: _123  and  _124
REMARK   39  A    between atoms: _127  and  _129
REMARK   40  A    between atoms: _129  and  _130
REMARK   41  A    between atoms: _129  and  _132
REMARK   42  A    between atoms: _132  and  _133
REMARK   43  A    between atoms: _136  and  _138
REMARK   44  A    between atoms: _138  and  _139
REMARK   45  A    between atoms: _138  and  _141
REMARK   46  A    between atoms: _141  and  _142
REMARK   47  A    between atoms: _145  and  _147
REMARK   48  A    between atoms: _147  and  _148
REMARK   49  A    between atoms: _147  and  _150
REMARK   50  A    between atoms: _150  and  _151
REMARK   51  A    between atoms: _156  and  _157
REMARK   52  A    between atoms: _159  and  _161
REMARK   53  A    between atoms: _161  and  _162
REMARK   54  A    between atoms: _161  and  _164
REMARK   55  A    between atoms: _164  and  _165
REMARK   56  A    between atoms: _170  and  _171
REMARK   57  A    between atoms: _173  and  _175
REMARK   58  A    between atoms: _175  and  _176
REMARK   59  A    between atoms: _175  and  _178
REMARK   60  A    between atoms: _178  and  _179
REMARK   61  A    between atoms: _181  and  _183
REMARK   62  A    between atoms: _183  and  _184
REMARK   63  A    between atoms: _183  and  _186
REMARK   64  A    between atoms: _186  and  _187
REMARK   65  A    between atoms: _187  and  _188
REMARK   66  A    between atoms: _188  and  _189
REMARK   67  A    between atoms: _198  and  _200
REMARK   68  A    between atoms: _200  and  _201
REMARK   69  A    between atoms: _200  and  _203
REMARK   70  A    between atoms: _203  and  _204
REMARK   71  A    between atoms: _204  and  _205
REMARK   72  A    between atoms: _210  and  _212
REMARK   73  A    between atoms: _212  and  _213
REMARK   74  A    between atoms: _212  and  _215
REMARK   75  A    between atoms: _215  and  _216
REMARK   76  A    between atoms: _219  and  _221
REMARK   77  A    between atoms: _221  and  _222
REMARK   78  A    between atoms: _221  and  _224
REMARK   79  A    between atoms: _224  and  _225
REMARK   80  A    between atoms: _230  and  _232
REMARK   81  A    between atoms: _232  and  _233
REMARK   82  A    between atoms: _232  and  _235
REMARK   83  A    between atoms: _235  and  _236
REMARK   84  A    between atoms: _241  and  _243
REMARK   85  A    between atoms: _243  and  _244
REMARK   86  A    between atoms: _243  and  _246
REMARK   87  A    between atoms: _246  and  _247
REMARK   88  A    between atoms: _252  and  _253
REMARK   89  A    between atoms: _255  and  _257
REMARK   90  A    between atoms: _257  and  _258
REMARK   91  A    between atoms: _257  and  _260
REMARK   92  A    between atoms: _260  and  _261
REMARK   93  A    between atoms: _266  and  _268
REMARK   94  A    between atoms: _268  and  _269
REMARK   95  A    between atoms: _268  and  _271
REMARK   96  A    between atoms: _271  and  _272
REMARK   97  A    between atoms: _274  and  _276
REMARK   98  A    between atoms: _276  and  _277
REMARK   99  A    between atoms: _276  and  _279
REMARK  100  A    between atoms: _279  and  _280
REMARK  101  A    between atoms: _283  and  _285
REMARK  102  A    between atoms: _285  and  _286
REMARK  103  A    between atoms: _285  and  _288
REMARK  104  A    between atoms: _288  and  _289
REMARK  105  A    between atoms: _292  and  _294
REMARK  106  A    between atoms: _294  and  _295
REMARK  107  A    between atoms: _294  and  _297
REMARK  108  A    between atoms: _297  and  _298
REMARK  109  A    between atoms: _304  and  _306
REMARK  110  A    between atoms: _306  and  _307
REMARK  111  A    between atoms: _306  and  _309
REMARK  112  A    between atoms: _309  and  _310
REMARK                            x       y       z     vdW  Elec       q    Type
REMARK                         _______ _______ _______ _____ _____    ______ ____
ROOT
ATOM      1  CA  PHE A   1      12.915 -57.463  22.246  0.00  0.00    +0.017 C 
ENDROOT
BRANCH   1   2
ATOM      2  N   PHE A   1      13.516 -58.763  22.576  0.00  0.00    +0.388 N 
ATOM      3  H1  PHE A   1      13.917 -58.725  23.535  0.00  0.00    -0.089 HD
ATOM      4  H2  PHE A   1      12.786 -59.502  22.534  0.00  0.00    -0.089 HD
ATOM      5  H3  PHE A   1      14.269 -58.979  21.892  0.00  0.00    -0.089 HD
ENDBRANCH   1   2
BRANCH   1   6
ATOM      6  C   PHE A   1      11.799 -57.101  23.226  0.00  0.00    +0.202 C 
ATOM      7  N   ALA A   2      11.920 -55.927  23.817  0.00  0.00    -0.301 N 
ATOM      8  H   ALA A   2      12.792 -55.376  23.686  0.00  0.00    +0.150 HD
ATOM      9  O   PHE A   1      10.844 -57.856  23.436  0.00  0.00    -0.277 OA
BRANCH   7  10
ATOM     10  CA  ALA A   2      10.857 -55.393  24.645  0.00  0.00    +0.137 C 
ATOM     11  CB  ALA A   2      10.982 -55.909  26.086  0.00  0.00    +0.030 C 
BRANCH  10  12
ATOM     12  C   ALA A   2      10.899 -53.861  24.598  0.00  0.00    +0.227 C 
ATOM     13  O   ALA A   2      11.871 -53.259  24.110  0.00  0.00    -0.286 OA
ENDBRANCH  10  12
ENDBRANCH   7  10
ENDBRANCH   1   6
BRANCH   1  14
ATOM     14  CB  PHE A   1      12.350 -57.489  20.831  0.00  0.00    +0.013 C 
BRANCH  14  15
ATOM     15  CG  PHE A   1      11.781 -56.169  20.399  0.00  0.00    -0.024 A 
ATOM     16  CD2 PHE A   1      10.464 -55.861  20.636  0.00  0.00    -0.004 A 
ATOM     17  CE2 PHE A   1       9.958 -54.651  20.255  0.00  0.00    -0.000 A 
ATOM     18  CZ  PHE A   1      10.773 -53.725  19.650  0.00  0.00    -0.000 A 
ATOM     19  CE1 PHE A   1      12.068 -54.023  19.413  0.00  0.00    -0.000 A 
ATOM     20  CD1 PHE A   1      12.576 -55.231  19.782  0.00  0.00    -0.004 A 
ENDBRANCH  14  15
ENDBRANCH   1  14
TORSDOF 6
REMARK  Name = ../refined-set-2016/4avi/4avi_pocket.pdb
REMARK  112 active torsions:
REMARK  status: ('A' for Active; 'I' for Inactive)
REMARK    1  A    between atoms: _1  and  _5
REMARK    2  A    between atoms: _5  and  _6
REMARK    3  A    between atoms: _5  and  _8
REMARK    4  A    between atoms: _8  and  _9
REMARK    5  A    between atoms: _15  and  _17
REMARK    6  A    between atoms: _17  and  _18
REMARK    7  A    between atoms: _22  and  _23
REMARK    8  A    between atoms: _28  and  _30
REMARK    9  A    between atoms: _30  and  _31
REMARK   10  A    between atoms: _30  and  _33
REMARK   11  A    between atoms: _33  and  _34
REMARK   12  A    between atoms: _37  and  _39
REMARK   13  A    between atoms: _39  and  _40
REMARK   14  A    between atoms: _42  and  _44
REMARK   15  A    between atoms: _44  and  _45
REMARK   16  A    between atoms: _47  and  _49
REMARK   17  A    between atoms: _60  and  _63
REMARK   18  A    between atoms: _63  and  _64
REMARK   19  A    between atoms: _71  and  _72
REMARK   20  A    between atoms: _78  and  _80
REMARK   21  A    between atoms: _80  and  _81
REMARK   22  A    between atoms: _80  and  _83
REMARK   23  A    between atoms: _83  and  _84
REMARK   24  A    between atoms: _89  and  _90
REMARK   25  A    between atoms: _93  and  _94
REMARK   26  A    between atoms: _99  and  _101
REMARK   27  A    between atoms: _101  and  _102
REMARK   28  A    between atoms: _101  and  _104
REMARK   29  A    between atoms: _104  and  _105
REMARK   30  A    between atoms: _105  and  _106
REMARK   31  A    between atoms: _109  and  _111
REMARK   32  A    between atoms: _111  and  _112
REMARK   33  A    between atoms: _111  and  _114
REMARK   34  A    between atoms: _114  and  _115
REMARK   35  A    between atoms: _118  and  _120
REMARK   36  A    between atoms: _120  and  _121
REMARK   37  A    between atoms: _120  and  _123
REMARK   38  A    between atoms: _123  and  _124
REMARK   39  A    between atoms: _127  and  _129
REMARK   40  A    between atoms: _129  and  _130
REMARK   41  A    between atoms: _129  and  _132
REMARK   42  A    between atoms: _132  and  _133
REMARK   43  A    between atoms: _136  and  _138
REMARK   44  A    between atoms: _138  and  _139
REMARK   45  A    between atoms: _138  and  _141
REMARK   46  A    between atoms: _141  and  _142
REMARK   47  A    between atoms: _145  and  _147
REMARK   48  A    between atoms: _147  and  _148
REMARK   49  A    between atoms: _147  and  _150
REMARK   50  A    between atoms: _150  and  _151
REMARK   51  A    between atoms: _156  and  _157
REMARK   52  A    between atoms: _159  and  _161
REMARK   53  A    between atoms: _161  and  _162
REMARK   54  A    between atoms: _161  and  _164
REMARK   55  A    between atoms: _164  and  _165
REMARK   56  A    between atoms: _170  and  _171
REMARK   57  A    between atoms: _173  and  _175
REMARK   58  A    between atoms: _175  and  _176
REMARK   59  A    between atoms: _175  and  _178
REMARK   60  A    between atoms: _178  and  _179
REMARK   61  A    between atoms: _181  and  _183
REMARK   62  A    between atoms: _183  and  _184
REMARK   63  A    between atoms: _183  and  _186
REMARK   64  A    between atoms: _186  and  _187
REMARK   65  A    between atoms: _187  and  _188
REMARK   66  A    between atoms: _188  and  _189
REMARK   67  A    between atoms: _198  and  _200
REMARK   68  A    between atoms: _200  and  _201
REMARK   69  A    between atoms: _200  and  _203
REMARK   70  A    between atoms: _203  and  _204
REMARK   71  A    between atoms: _204  and  _205
REMARK   72  A    between atoms: _210  and  _212
REMARK   73  A    between atoms: _212  and  _213
REMARK   74  A    between atoms: _212  and  _215
REMARK   75  A    between atoms: _215  and  _216
REMARK   76  A    between atoms: _219  and  _221
REMARK   77  A    between atoms: _221  and  _222
REMARK   78  A    between atoms: _221  and  _224
REMARK   79  A    between atoms: _224  and  _225
REMARK   80  A    between atoms: _230  and  _232
REMARK   81  A    between atoms: _232  and  _233
REMARK   82  A    between atoms: _232  and  _235
REMARK   83  A    between atoms: _235  and  _236
REMARK   84  A    between atoms: _241  and  _243
REMARK   85  A    between atoms: _243  and  _244
REMARK   86  A    between atoms: _243  and  _246
REMARK   87  A    between atoms: _246  and  _247
REMARK   88  A    between atoms: _252  and  _253
REMARK   89  A    between atoms: _255  and  _257
REMARK   90  A    between atoms: _257  and  _258
REMARK   91  A    between atoms: _257  and  _260
REMARK   92  A    between atoms: _260  and  _261
REMARK   93  A    between atoms: _266  and  _268
REMARK   94  A    between atoms: _268  and  _269
REMARK   95  A    between atoms: _268  and  _271
REMARK   96  A    between atoms: _271  and  _272
REMARK   97  A    between atoms: _274  and  _276
REMARK   98  A    between atoms: _276  and  _277
REMARK   99  A    between atoms: _276  and  _279
REMARK  100  A    between atoms: _279  and  _280
REMARK  101  A    between atoms: _283  and  _285
REMARK  102  A    between atoms: _285  and  _286
REMARK  103  A    between atoms: _285  and  _288
REMARK  104  A    between atoms: _288  and  _289
REMARK  105  A    between atoms: _292  and  _294
REMARK  106  A    between atoms: _294  and  _295
REMARK  107  A    between atoms: _294  and  _297
REMARK  108  A    between atoms: _297  and  _298
REMARK  109  A    between atoms: _304  and  _306
REMARK  110  A    between atoms: _306  and  _307
REMARK  111  A    between atoms: _306  and  _309
REMARK  112  A    between atoms: _309  and  _310
REMARK                            x       y       z     vdW  Elec       q    Type
REMARK                         _______ _______ _______ _____ _____    ______ ____
ROOT
ATOM      1  CA  ILE A   2       9.180 -59.921  25.628  0.00  0.00    +0.148 C 
ENDROOT
BRANCH   1   3
ATOM      2  C   PRO A   1       7.900 -58.143  26.742  0.00  0.00    +0.239 C 
ATOM      3  N   ILE A   2       8.997 -58.894  26.648  0.00  0.00    -0.297 N 
ATOM      4  H   ILE A   2       9.761 -58.740  27.336  0.00  0.00    +0.150 HD
ATOM      5  O   PRO A   1       7.004 -58.094  25.877  0.00  0.00    -0.274 OA
BRANCH   2  10
ATOM      6  N   PRO A   1       6.644 -56.412  28.009  0.00  0.00    -0.210 NA
ATOM      7  CD  PRO A   1       5.429 -57.046  28.561  0.00  0.00    +0.089 C 
ATOM      8  CG  PRO A   1       5.938 -58.405  29.074  0.00  0.00    +0.021 C 
ATOM      9  CB  PRO A   1       7.470 -58.244  29.176  0.00  0.00    +0.028 C 
ATOM     10  CA  PRO A   1       7.796 -57.315  28.016  0.00  0.00    +0.149 C 
ENDBRANCH   2  10
ENDBRANCH   1   3
BRANCH   1  11
ATOM     11  C   ILE A   2       7.859 -60.646  25.357  0.00  0.00    +0.241 C 
ATOM     12  O   ILE A   2       7.158 -61.034  26.295  0.00  0.00    -0.273 OA
ATOM     13  N   GLY A   3       7.509 -60.816  24.083  0.00  0.00    -0.295 N 
ATOM     14  H   GLY A   3       8.129 -60.442  23.336  0.00  0.00    +0.150 HD
BRANCH  13  15
ATOM     15  CA  GLY A   3       6.279 -61.513  23.700  0.00  0.00    +0.176 C 
BRANCH  15  16
ATOM     16  C   GLY A   3       5.107 -60.587  23.380  0.00  0.00    +0.243 C 
ATOM     17  N   GLY A   4       5.270 -59.309  23.711  0.00  0.00    -0.296 N 
ATOM     18  H   GLY A   4       6.129 -59.012  24.216  0.00  0.00    +0.150 HD
ATOM     19  O   GLY A   3       4.056 -61.011  22.851  0.00  0.00    -0.273 OA
BRANCH  17  20
ATOM     20  CA  GLY A   4       4.260 -58.329  23.374  0.00  0.00    +0.163 C 
BRANCH  20  21
ATOM     21  C   GLY A   4       3.206 -58.186  24.444  0.00  0.00    +0.229 C 
ATOM     22  O   GLY A   4       3.279 -58.776  25.521  0.00  0.00    -0.286 OA
ENDBRANCH  20  21
ENDBRANCH  17  20
ENDBRANCH  15  16
ENDBRANCH  13  15
ENDBRANCH   1  11
BRANCH   1  23
ATOM     23  CB  ILE A   2      10.237 -60.934  26.113  0.00  0.00    +0.027 C 
ATOM     24  CG2 ILE A   2      10.158 -62.220  25.329  0.00  0.00    +0.002 C 
BRANCH  23  25
ATOM     25  CG1 ILE A   2      11.639 -60.333  25.999  0.00  0.00    +0.002 C 
ATOM     26  CD1 ILE A   2      12.740 -61.168  26.704  0.00  0.00    +0.000 C 
ENDBRANCH  23  25
ENDBRANCH   1  23
TORSDOF 9
REMARK  Name = ../refined-set-2016/4avi/4avi_pocket.pdb
REMARK  112 active torsions:
REMARK  status: ('A' for Active; 'I' for Inactive)
REMARK    1  A    between atoms: _1  and  _5
REMARK    2  A    between atoms: _5  and  _6
REMARK    3  A    between atoms: _5  and  _8
REMARK    4  A    between atoms: _8  and  _9
REMARK    5  A    between atoms: _15  and  _17
REMARK    6  A    between atoms: _17  and  _18
REMARK    7  A    between atoms: _22  and  _23
REMARK    8  A    between atoms: _28  and  _30
REMARK    9  A    between atoms: _30  and  _31
REMARK   10  A    between atoms: _30  and  _33
REMARK   11  A    between atoms: _33  and  _34
REMARK   12  A    between atoms: _37  and  _39
REMARK   13  A    between atoms: _39  and  _40
REMARK   14  A    between atoms: _42  and  _44
REMARK   15  A    between atoms: _44  and  _45
REMARK   16  A    between atoms: _47  and  _49
REMARK   17  A    between atoms: _60  and  _63
REMARK   18  A    between atoms: _63  and  _64
REMARK   19  A    between atoms: _71  and  _72
REMARK   20  A    between atoms: _78  and  _80
REMARK   21  A    between atoms: _80  and  _81
REMARK   22  A    between atoms: _80  and  _83
REMARK   23  A    between atoms: _83  and  _84
REMARK   24  A    between atoms: _89  and  _90
REMARK   25  A    between atoms: _93  and  _94
REMARK   26  A    between atoms: _99  and  _101
REMARK   27  A    between atoms: _101  and  _102
REMARK   28  A    between atoms: _101  and  _104
REMARK   29  A    between atoms: _104  and  _105
REMARK   30  A    between atoms: _105  and  _106
REMARK   31  A    between atoms: _109  and  _111
REMARK   32  A    between atoms: _111  and  _112
REMARK   33  A    between atoms: _111  and  _114
REMARK   34  A    between atoms: _114  and  _115
REMARK   35  A    between atoms: _118  and  _120
REMARK   36  A    between atoms: _120  and  _121
REMARK   37  A    between atoms: _120  and  _123
REMARK   38  A    between atoms: _123  and  _124
REMARK   39  A    between atoms: _127  and  _129
REMARK   40  A    between atoms: _129  and  _130
REMARK   41  A    between atoms: _129  and  _132
REMARK   42  A    between atoms: _132  and  _133
REMARK   43  A    between atoms: _136  and  _138
REMARK   44  A    between atoms: _138  and  _139
REMARK   45  A    between atoms: _138  and  _141
REMARK   46  A    between atoms: _141  and  _142
REMARK   47  A    between atoms: _145  and  _147
REMARK   48  A    between atoms: _147  and  _148
REMARK   49  A    between atoms: _147  and  _150
REMARK   50  A    between atoms: _150  and  _151
REMARK   51  A    between atoms: _156  and  _157
REMARK   52  A    between atoms: _159  and  _161
REMARK   53  A    between atoms: _161  and  _162
REMARK   54  A    between atoms: _161  and  _164
REMARK   55  A    between atoms: _164  and  _165
REMARK   56  A    between atoms: _170  and  _171
REMARK   57  A    between atoms: _173  and  _175
REMARK   58  A    between atoms: _175  and  _176
REMARK   59  A    between atoms: _175  and  _178
REMARK   60  A    between atoms: _178  and  _179
REMARK   61  A    between atoms: _181  and  _183
REMARK   62  A    between atoms: _183  and  _184
REMARK   63  A    between atoms: _183  and  _186
REMARK   64  A    between atoms: _186  and  _187
REMARK   65  A    between atoms: _187  and  _188
REMARK   66  A    between atoms: _188  and  _189
REMARK   67  A    between atoms: _198  and  _200
REMARK   68  A    between atoms: _200  and  _201
REMARK   69  A    between atoms: _200  and  _203
REMARK   70  A    between atoms: _203  and  _204
REMARK   71  A    between atoms: _204  and  _205
REMARK   72  A    between atoms: _210  and  _212
REMARK   73  A    between atoms: _212  and  _213
REMARK   74  A    between atoms: _212  and  _215
REMARK   75  A    between atoms: _215  and  _216
REMARK   76  A    between atoms: _219  and  _221
REMARK   77  A    between atoms: _221  and  _222
REMARK   78  A    between atoms: _221  and  _224
REMARK   79  A    between atoms: _224  and  _225
REMARK   80  A    between atoms: _230  and  _232
REMARK   81  A    between atoms: _232  and  _233
REMARK   82  A    between atoms: _232  and  _235
REMARK   83  A    between atoms: _235  and  _236
REMARK   84  A    between atoms: _241  and  _243
REMARK   85  A    between atoms: _243  and  _244
REMARK   86  A    between atoms: _243  and  _246
REMARK   87  A    between atoms: _246  and  _247
REMARK   88  A    between atoms: _252  and  _253
REMARK   89  A    between atoms: _255  and  _257
REMARK   90  A    between atoms: _257  and  _258
REMARK   91  A    between atoms: _257  and  _260
REMARK   92  A    between atoms: _260  and  _261
REMARK   93  A    between atoms: _266  and  _268
REMARK   94  A    between atoms: _268  and  _269
REMARK   95  A    between atoms: _268  and  _271
REMARK   96  A    between atoms: _271  and  _272
REMARK   97  A    between atoms: _274  and  _276
REMARK   98  A    between atoms: _276  and  _277
REMARK   99  A    between atoms: _276  and  _279
REMARK  100  A    between atoms: _279  and  _280
REMARK  101  A    between atoms: _283  and  _285
REMARK  102  A    between atoms: _285  and  _286
REMARK  103  A    between atoms: _285  and  _288
REMARK  104  A    between atoms: _288  and  _289
REMARK  105  A    between atoms: _292  and  _294
REMARK  106  A    between atoms: _294  and  _295
REMARK  107  A    between atoms: _294  and  _297
REMARK  108  A    between atoms: _297  and  _298
REMARK  109  A    between atoms: _304  and  _306
REMARK  110  A    between atoms: _306  and  _307
REMARK  111  A    between atoms: _306  and  _309
REMARK  112  A    between atoms: _309  and  _310
REMARK                            x       y       z     vdW  Elec       q    Type
REMARK                         _______ _______ _______ _____ _____    ______ ____
ROOT
ATOM      1  CA  GLU A   6      24.956 -60.356  18.393  0.00  0.00    +0.000 C 
ENDROOT
BRANCH   1   3
ATOM      2  C   PRO A   5      23.044 -58.835  18.324  0.00  0.00    +0.000 C 
ATOM      3  N   GLU A   6      23.805 -59.690  19.008  0.00  0.00    +0.000 N 
ATOM      4  H   GLU A   6      23.576 -59.889  20.003  0.00  0.00    +0.000 HD
ATOM      5  O   PRO A   5      23.159 -58.649  17.106  0.00  0.00    +0.000 OA
BRANCH   2  11
ATOM      6  C   TYR A   4      21.065 -59.962  20.387  0.00  0.00    +0.000 C 
ATOM      7  N   PRO A   5      21.583 -58.727  20.358  0.00  0.00    +0.000 N 
ATOM      8  CD  PRO A   5      21.860 -57.874  21.526  0.00  0.00    +0.000 C 
ATOM      9  CG  PRO A   5      22.744 -56.799  20.981  0.00  0.00    +0.000 C 
ATOM     10  CB  PRO A   5      22.437 -56.697  19.537  0.00  0.00    +0.000 C 
ATOM     11  CA  PRO A   5      21.950 -58.083  19.099  0.00  0.00    +0.000 C 
ATOM     12  O   TYR A   4      21.024 -60.696  19.408  0.00  0.00    +0.000 OA
BRANCH   6  13
ATOM     13  CA  TYR A   4      20.508 -60.435  21.707  0.00  0.00    +0.000 C 
BRANCH  13  16
ATOM     14  C   UNK A   3      19.135 -59.382  23.430  0.00  0.00    +0.000 C 
ATOM     15  O   UNK A   3      19.768 -59.947  24.317  0.00  0.00    +0.000 OA
ATOM     16  N   TYR A   4      19.405 -59.573  22.144  0.00  0.00    +0.000 N 
ATOM     17  H   TYR A   4      18.819 -59.099  21.428  0.00  0.00    +0.000 HD
BRANCH  14  30
ATOM     18  C   UNK A   1      15.740 -52.651  22.589  0.00  0.00    +0.000 C 
ATOM     19  C   UNK A   1      16.560 -52.515  23.894  0.00  0.00    +0.000 C 
ATOM     20  C   UNK A   1      16.102 -53.435  24.978  0.00  0.00    +0.000 A 
ATOM     21  N   UNK A   1      15.041 -53.138  25.809  0.00  0.00    +0.000 NA
ATOM     22  C   UNK A   1      14.845 -54.138  26.647  0.00  0.00    +0.000 A 
ATOM     23  N   UNK A   1      15.732 -55.083  26.380  0.00  0.00    +0.000 N 
ATOM     24 NI   UNK A   1      15.886 -56.642  27.657  0.00  0.00    +0.000 Ni
ATOM     25  O   UNK A   1      14.003 -57.309  27.696  0.00  0.00    +0.000 OA
ATOM     26  O   UNK A   1      16.588 -57.795  26.209  0.00  0.00    +0.000 OA
ATOM     27  C   UNK A   1      16.020 -58.533  25.371  0.00  0.00    +0.000 C 
ATOM     28  O   UNK A   1      14.774 -58.643  25.237  0.00  0.00    +0.000 OA
ATOM     29  C   UNK A   1      16.897 -59.317  24.460  0.00  0.00    +0.000 C 
ATOM     30  C   UNK A   1      17.957 -58.452  23.795  0.00  0.00    +0.000 C 
ATOM     31  N   UNK A   3      17.339 -57.708  22.692  0.00  0.00    +0.000 N 
ATOM     32  H   UNK A   3      16.483 -58.096  22.246  0.00  0.00    +0.000 HD
ATOM     33  C   ASN A   2      17.828 -56.562  22.242  0.00  0.00    +0.000 C 
ATOM     34  O   ASN A   2      18.809 -56.030  22.722  0.00  0.00    +0.000 OA
ATOM     35  CA  ASN A   2      17.100 -55.893  21.093  0.00  0.00    +0.000 C 
ATOM     36  N   ASN A   2      16.845 -54.515  21.521  0.00  0.00    +0.000 N 
ATOM     37  H   ASN A   2      17.592 -53.811  21.356  0.00  0.00    +0.000 HD
ATOM     38  C   UNK A   1      16.520 -54.673  25.328  0.00  0.00    +0.000 A 
ATOM     39  C   UNK A   1      15.717 -54.100  22.109  0.00  0.00    +0.000 C 
ATOM     40  O   UNK A   1      14.705 -54.791  22.254  0.00  0.00    +0.000 OA
BRANCH  18  41
ATOM     41  N   UNK A   1      14.381 -52.138  22.748  0.00  0.00    +0.000 NA
ATOM     42  H   UNK A   1      13.618 -52.777  23.048  0.00  0.00    +0.000 HD
ENDBRANCH  18  41
BRANCH  35  43
ATOM     43  CB  ASN A   2      17.979 -55.877  19.821  0.00  0.00    +0.000 C 
BRANCH  43  44
ATOM     44  CG  ASN A   2      18.246 -57.286  19.225  0.00  0.00    +0.000 C 
ATOM     45  OD1 ASN A   2      18.323 -58.287  19.934  0.00  0.00    +0.000 OA
ATOM     46  ND2 ASN A   2      18.412 -57.341  17.904  0.00  0.00    +0.000 N 
ATOM     47 HD21 ASN A   2      18.614 -58.251  17.443  0.00  0.00    +0.000 HD
ATOM     48 HD22 ASN A   2      18.340 -56.474  17.334  0.00  0.00    +0.000 HD
ENDBRANCH  43  44
ENDBRANCH  35  43
ENDBRANCH  14  30
ENDBRANCH  13  16
BRANCH  13  49
ATOM     49  CB  TYR A   4      20.042 -61.873  21.554  0.00  0.00    +0.000 C 
BRANCH  49  50
ATOM     50  CG  TYR A   4      19.626 -62.500  22.864  0.00  0.00    +0.000 A 
ATOM     51  CD2 TYR A   4      20.573 -63.031  23.738  0.00  0.00    +0.000 A 
ATOM     52  CE2 TYR A   4      20.196 -63.610  24.955  0.00  0.00    +0.000 A 
ATOM     53  CZ  TYR A   4      18.865 -63.651  25.303  0.00  0.00    +0.000 A 
ATOM     54  CE1 TYR A   4      17.899 -63.131  24.457  0.00  0.00    +0.000 A 
ATOM     55  CD1 TYR A   4      18.285 -62.555  23.240  0.00  0.00    +0.000 A 
BRANCH  53  56
ATOM     56  OH  TYR A   4      18.497 -64.206  26.497  0.00  0.00    +0.000 OA
ATOM     57  HH  TYR A   4      19.304 -64.526  26.973  0.00  0.00    +0.000 HD
ENDBRANCH  53  56
ENDBRANCH  49  50
ENDBRANCH  13  49
ENDBRANCH   6  13
ENDBRANCH   2  11
ENDBRANCH   1   3
BRANCH   1  58
ATOM     58  C   GLU A   6      24.526 -61.507  17.500  0.00  0.00    +0.000 C 
ATOM     59  N   THR A   7      23.355 -62.059  17.740  0.00  0.00    +0.000 N 
ATOM     60  H   THR A   7      22.741 -61.684  18.491  0.00  0.00    +0.000 HD
ATOM     61  O   GLU A   6      25.251 -61.913  16.616  0.00  0.00    +0.000 OA
BRANCH  59  62
ATOM     62  CA  THR A   7      22.930 -63.196  16.945  0.00  0.00    +0.000 C 
BRANCH  62  63
ATOM     63  C   THR A   7      21.611 -62.938  16.242  0.00  0.00    +0.000 C 
ATOM     64  N   ILE A   8      20.835 -62.003  16.782  0.00  0.00    +0.000 N 
ATOM     65  H   ILE A   8      21.190 -61.436  17.578  0.00  0.00    +0.000 HD
ATOM     66  O   THR A   7      21.299 -63.577  15.229  0.00  0.00    +0.000 OA
BRANCH  64  67
ATOM     67  CA  ILE A   8      19.507 -61.768  16.276  0.00  0.00    +0.000 C 
BRANCH  67  68
ATOM     68  C   ILE A   8      19.352 -60.348  15.825  0.00  0.00    +0.000 C 
ATOM     69  O   ILE A   8      19.847 -59.415  16.482  0.00  0.00    +0.000 OA
ATOM     70  N   THR A   9      18.671 -60.188  14.693  0.00  0.00    +0.000 N 
ATOM     71  H   THR A   9      18.462 -61.020  14.105  0.00  0.00    +0.000 HD
BRANCH  70  72
ATOM     72  CA  THR A   9      18.207 -58.866  14.254  0.00  0.00    +0.000 C 
BRANCH  72  73
ATOM     73  C   THR A   9      16.686 -58.752  14.406  0.00  0.00    +0.000 C 
ATOM     74  N   ASP A  10      16.249 -57.701  15.099  0.00  0.00    +0.000 N 
ATOM     75  H   ASP A  10      16.945 -57.068  15.542  0.00  0.00    +0.000 HD
ATOM     76  O   THR A   9      15.935 -59.603  13.926  0.00  0.00    +0.000 OA
BRANCH  74  77
ATOM     77  CA  ASP A  10      14.833 -57.407  15.259  0.00  0.00    +0.000 C 
BRANCH  77  78
ATOM     78  C   ASP A  10      14.330 -56.386  14.216  0.00  0.00    +0.000 C 
ATOM     79  O   ASP A  10      14.993 -55.394  13.935  0.00  0.00    +0.000 OA
ATOM     80  N   TYR A  11      13.137 -56.638  13.680  0.00  0.00    +0.000 N 
ATOM     81  H   TYR A  11      12.639 -57.502  13.975  0.00  0.00    +0.000 HD
BRANCH  80  82
ATOM     82  CA  TYR A  11      12.491 -55.774  12.706  0.00  0.00    +0.000 C 
BRANCH  82  83
ATOM     83  C   TYR A  11      11.207 -55.194  13.302  0.00  0.00    +0.000 C 
ATOM     84  O   TYR A  11      10.357 -55.931  13.776  0.00  0.00    +0.000 OA
ENDBRANCH  82  83
BRANCH  82  85
ATOM     85  CB  TYR A  11      12.111 -56.565  11.454  0.00  0.00    +0.000 C 
BRANCH  85  86
ATOM     86  CG  TYR A  11      13.271 -57.246  10.797  0.00  0.00    +0.000 A 
ATOM     87  CD2 TYR A  11      13.300 -58.639  10.667  0.00  0.00    +0.000 A 
ATOM     88  CE2 TYR A  11      14.372 -59.287  10.065  0.00  0.00    +0.000 A 
ATOM     89  CZ  TYR A  11      15.445 -58.540   9.599  0.00  0.00    +0.000 A 
ATOM     90  CE1 TYR A  11      15.444 -57.144   9.726  0.00  0.00    +0.000 A 
ATOM     91  CD1 TYR A  11      14.361 -56.511  10.324  0.00  0.00    +0.000 A 
BRANCH  89  92
ATOM     92  OH  TYR A  11      16.510 -59.194   9.011  0.00  0.00    +0.000 OA
ATOM     93  HH  TYR A  11      17.190 -58.531   8.733  0.00  0.00    +0.000 HD
ENDBRANCH  89  92
ENDBRANCH  85  86
ENDBRANCH  82  85
ENDBRANCH  80  82
ENDBRANCH  77  78
BRANCH  77  94
ATOM     94  CB  ASP A  10      14.553 -56.888  16.682  0.00  0.00    +0.000 C 
BRANCH  94  95
ATOM     95  CG  ASP A  10      14.727 -57.963  17.754  0.00  0.00    +0.000 C 
ATOM     96  OD2 ASP A  10      15.290 -57.629  18.829  0.00  0.00    +0.000 OA
ATOM     97  OD1 ASP A  10      14.299 -59.135  17.523  0.00  0.00    +0.000 OA
ENDBRANCH  94  95
ENDBRANCH  77  94
ENDBRANCH  74  77
ENDBRANCH  72  73
BRANCH  72  98
ATOM     98  CB  THR A   9      18.652 -58.547  12.803  0.00  0.00    +0.000 C 
ATOM     99  CG2 THR A   9      18.020 -57.253  12.303  0.00  0.00    +0.000 C 
BRANCH  98 100
ATOM    100  OG1 THR A   9      20.074 -58.389  12.786  0.00  0.00    +0.000 OA
ATOM    101  HG1 THR A   9      20.502 -59.227  13.094  0.00  0.00    +0.000 HD
ENDBRANCH  98 100
ENDBRANCH  72  98
ENDBRANCH  70  72
ENDBRANCH  67  68
BRANCH  67 102
ATOM    102  CB  ILE A   8      18.480 -62.045  17.341  0.00  0.00    +0.000 C 
ATOM    103  CG2 ILE A   8      17.074 -61.686  16.828  0.00  0.00    +0.000 C 
BRANCH 102 104
ATOM    104  CG1 ILE A   8      18.553 -63.516  17.737  0.00  0.00    +0.000 C 
ATOM    105  CD1 ILE A   8      17.531 -63.934  18.778  0.00  0.00    +0.000 C 
ENDBRANCH 102 104
ENDBRANCH  67 102
ENDBRANCH  64  67
ENDBRANCH  62  63
BRANCH  62 106
ATOM    106  CB  THR A   7      22.790 -64.451  17.817  0.00  0.00    +0.000 C 
ATOM    107  CG2 THR A   7      24.159 -65.061  18.082  0.00  0.00    +0.000 C 
BRANCH 106 108
ATOM    108  OG1 THR A   7      22.181 -64.101  19.068  0.00  0.00    +0.000 OA
ATOM    109  HG1 THR A   7      22.747 -63.436  19.535  0.00  0.00    +0.000 HD
ENDBRANCH 106 108
ENDBRANCH  62 106
ENDBRANCH  59  62
ENDBRANCH   1  58
BRANCH   1 110
ATOM    110  CB  GLU A   6      25.935 -60.918  19.455  0.00  0.00    +0.000 C 
BRANCH 110 111
ATOM    111  CG  GLU A   6      26.427 -59.938  20.518  0.00  0.00    +0.000 C 
BRANCH 111 112
ATOM    112  CD  GLU A   6      25.450 -59.779  21.713  0.00  0.00    +0.000 C 
ATOM    113  OE2 GLU A   6      25.779 -58.963  22.615  0.00  0.00    +0.000 OA
ATOM    114  OE1 GLU A   6      24.372 -60.457  21.752  0.00  0.00    +0.000 OA
ENDBRANCH 111 112
ENDBRANCH 110 111
ENDBRANCH   1 110
TORSDOF 36
REMARK  Name = ../refined-set-2016/4avi/4avi_pocket.pdb
REMARK  112 active torsions:
REMARK  status: ('A' for Active; 'I' for Inactive)
REMARK    1  A    between atoms: _1  and  _5
REMARK    2  A    between atoms: _5  and  _6
REMARK    3  A    between atoms: _5  and  _8
REMARK    4  A    between atoms: _8  and  _9
REMARK    5  A    between atoms: _15  and  _17
REMARK    6  A    between atoms: _17  and  _18
REMARK    7  A    between atoms: _22  and  _23
REMARK    8  A    between atoms: _28  and  _30
REMARK    9  A    between atoms: _30  and  _31
REMARK   10  A    between atoms: _30  and  _33
REMARK   11  A    between atoms: _33  and  _34
REMARK   12  A    between atoms: _37  and  _39
REMARK   13  A    between atoms: _39  and  _40
REMARK   14  A    between atoms: _42  and  _44
REMARK   15  A    between atoms: _44  and  _45
REMARK   16  A    between atoms: _47  and  _49
REMARK   17  A    between atoms: _60  and  _63
REMARK   18  A    between atoms: _63  and  _64
REMARK   19  A    between atoms: _71  and  _72
REMARK   20  A    between atoms: _78  and  _80
REMARK   21  A    between atoms: _80  and  _81
REMARK   22  A    between atoms: _80  and  _83
REMARK   23  A    between atoms: _83  and  _84
REMARK   24  A    between atoms: _89  and  _90
REMARK   25  A    between atoms: _93  and  _94
REMARK   26  A    between atoms: _99  and  _101
REMARK   27  A    between atoms: _101  and  _102
REMARK   28  A    between atoms: _101  and  _104
REMARK   29  A    between atoms: _104  and  _105
REMARK   30  A    between atoms: _105  and  _106
REMARK   31  A    between atoms: _109  and  _111
REMARK   32  A    between atoms: _111  and  _112
REMARK   33  A    between atoms: _111  and  _114
REMARK   34  A    between atoms: _114  and  _115
REMARK   35  A    between atoms: _118  and  _120
REMARK   36  A    between atoms: _120  and  _121
REMARK   37  A    between atoms: _120  and  _123
REMARK   38  A    between atoms: _123  and  _124
REMARK   39  A    between atoms: _127  and  _129
REMARK   40  A    between atoms: _129  and  _130
REMARK   41  A    between atoms: _129  and  _132
REMARK   42  A    between atoms: _132  and  _133
REMARK   43  A    between atoms: _136  and  _138
REMARK   44  A    between atoms: _138  and  _139
REMARK   45  A    between atoms: _138  and  _141
REMARK   46  A    between atoms: _141  and  _142
REMARK   47  A    between atoms: _145  and  _147
REMARK   48  A    between atoms: _147  and  _148
REMARK   49  A    between atoms: _147  and  _150
REMARK   50  A    between atoms: _150  and  _151
REMARK   51  A    between atoms: _156  and  _157
REMARK   52  A    between atoms: _159  and  _161
REMARK   53  A    between atoms: _161  and  _162
REMARK   54  A    between atoms: _161  and  _164
REMARK   55  A    between atoms: _164  and  _165
REMARK   56  A    between atoms: _170  and  _171
REMARK   57  A    between atoms: _173  and  _175
REMARK   58  A    between atoms: _175  and  _176
REMARK   59  A    between atoms: _175  and  _178
REMARK   60  A    between atoms: _178  and  _179
REMARK   61  A    between atoms: _181  and  _183
REMARK   62  A    between atoms: _183  and  _184
REMARK   63  A    between atoms: _183  and  _186
REMARK   64  A    between atoms: _186  and  _187
REMARK   65  A    between atoms: _187  and  _188
REMARK   66  A    between atoms: _188  and  _189
REMARK   67  A    between atoms: _198  and  _200
REMARK   68  A    between atoms: _200  and  _201
REMARK   69  A    between atoms: _200  and  _203
REMARK   70  A    between atoms: _203  and  _204
REMARK   71  A    between atoms: _204  and  _205
REMARK   72  A    between atoms: _210  and  _212
REMARK   73  A    between atoms: _212  and  _213
REMARK   74  A    between atoms: _212  and  _215
REMARK   75  A    between atoms: _215  and  _216
REMARK   76  A    between atoms: _219  and  _221
REMARK   77  A    between atoms: _221  and  _222
REMARK   78  A    between atoms: _221  and  _224
REMARK   79  A    between atoms: _224  and  _225
REMARK   80  A    between atoms: _230  and  _232
REMARK   81  A    between atoms: _232  and  _233
REMARK   82  A    between atoms: _232  and  _235
REMARK   83  A    between atoms: _235  and  _236
REMARK   84  A    between atoms: _241  and  _243
REMARK   85  A    between atoms: _243  and  _244
REMARK   86  A    between atoms: _243  and  _246
REMARK   87  A    between atoms: _246  and  _247
REMARK   88  A    between atoms: _252  and  _253
REMARK   89  A    between atoms: _255  and  _257
REMARK   90  A    between atoms: _257  and  _258
REMARK   91  A    between atoms: _257  and  _260
REMARK   92  A    between atoms: _260  and  _261
REMARK   93  A    between atoms: _266  and  _268
REMARK   94  A    between atoms: _268  and  _269
REMARK   95  A    between atoms: _268  and  _271
REMARK   96  A    between atoms: _271  and  _272
REMARK   97  A    between atoms: _274  and  _276
REMARK   98  A    between atoms: _276  and  _277
REMARK   99  A    between atoms: _276  and  _279
REMARK  100  A    between atoms: _279  and  _280
REMARK  101  A    between atoms: _283  and  _285
REMARK  102  A    between atoms: _285  and  _286
REMARK  103  A    between atoms: _285  and  _288
REMARK  104  A    between atoms: _288  and  _289
REMARK  105  A    between atoms: _292  and  _294
REMARK  106  A    between atoms: _294  and  _295
REMARK  107  A    between atoms: _294  and  _297
REMARK  108  A    between atoms: _297  and  _298
REMARK  109  A    between atoms: _304  and  _306
REMARK  110  A    between atoms: _306  and  _307
REMARK  111  A    between atoms: _306  and  _309
REMARK  112  A    between atoms: _309  and  _310
REMARK                            x       y       z     vdW  Elec       q    Type
REMARK                         _______ _______ _______ _____ _____    ______ ____
ROOT
ATOM      1  CG  TYR A   1      14.730 -51.758  17.360  0.00  0.00    -0.020 A 
ATOM      2  CD2 TYR A   1      14.793 -50.908  18.461  0.00  0.00    -0.001 A 
ATOM      3  CE2 TYR A   1      14.013 -49.763  18.533  0.00  0.00    +0.036 A 
ATOM      4  CZ  TYR A   1      13.169 -49.455  17.487  0.00  0.00    +0.134 A 
ATOM      5  CE1 TYR A   1      13.089 -50.280  16.380  0.00  0.00    +0.036 A 
ATOM      6  CD1 TYR A   1      13.870 -51.417  16.316  0.00  0.00    -0.001 A 
ENDROOT
BRANCH   4   7
ATOM      7  OH  TYR A   1      12.417 -48.310  17.530  0.00  0.00    -0.506 OA
ATOM      8  HH  TYR A   1      13.017 -47.525  17.595  0.00  0.00    +0.292 HD
ENDBRANCH   4   7
BRANCH   1   9
ATOM      9  CB  TYR A   1      15.614 -52.991  17.267  0.00  0.00    +0.051 C 
BRANCH   9  10
ATOM     10  CA  TYR A   1      16.731 -52.806  16.219  0.00  0.00    +0.137 C 
BRANCH  10  11
ATOM     11  N   TYR A   1      16.203 -52.956  14.879  0.00  0.00    -0.239 NA
ATOM     12  H   TYR A   1      15.647 -53.800  14.635  0.00  0.00    +0.142 HD
ENDBRANCH  10  11
BRANCH  10  13
ATOM     13  C   TYR A   1      17.876 -53.814  16.345  0.00  0.00    +0.224 C 
ATOM     14  O   TYR A   1      17.685 -55.019  16.198  0.00  0.00    -0.287 OA
ENDBRANCH  10  13
ENDBRANCH   9  10
ENDBRANCH   1   9
TORSDOF 5
REMARK  Name = ../refined-set-2016/4avi/4avi_pocket.pdb
REMARK  112 active torsions:
REMARK  status: ('A' for Active; 'I' for Inactive)
REMARK    1  A    between atoms: _1  and  _5
REMARK    2  A    between atoms: _5  and  _6
REMARK    3  A    between atoms: _5  and  _8
REMARK    4  A    between atoms: _8  and  _9
REMARK    5  A    between atoms: _15  and  _17
REMARK    6  A    between atoms: _17  and  _18
REMARK    7  A    between atoms: _22  and  _23
REMARK    8  A    between atoms: _28  and  _30
REMARK    9  A    between atoms: _30  and  _31
REMARK   10  A    between atoms: _30  and  _33
REMARK   11  A    between atoms: _33  and  _34
REMARK   12  A    between atoms: _37  and  _39
REMARK   13  A    between atoms: _39  and  _40
REMARK   14  A    between atoms: _42  and  _44
REMARK   15  A    between atoms: _44  and  _45
REMARK   16  A    between atoms: _47  and  _49
REMARK   17  A    between atoms: _60  and  _63
REMARK   18  A    between atoms: _63  and  _64
REMARK   19  A    between atoms: _71  and  _72
REMARK   20  A    between atoms: _78  and  _80
REMARK   21  A    between atoms: _80  and  _81
REMARK   22  A    between atoms: _80  and  _83
REMARK   23  A    between atoms: _83  and  _84
REMARK   24  A    between atoms: _89  and  _90
REMARK   25  A    between atoms: _93  and  _94
REMARK   26  A    between atoms: _99  and  _101
REMARK   27  A    between atoms: _101  and  _102
REMARK   28  A    between atoms: _101  and  _104
REMARK   29  A    between atoms: _104  and  _105
REMARK   30  A    between atoms: _105  and  _106
REMARK   31  A    between atoms: _109  and  _111
REMARK   32  A    between atoms: _111  and  _112
REMARK   33  A    between atoms: _111  and  _114
REMARK   34  A    between atoms: _114  and  _115
REMARK   35  A    between atoms: _118  and  _120
REMARK   36  A    between atoms: _120  and  _121
REMARK   37  A    between atoms: _120  and  _123
REMARK   38  A    between atoms: _123  and  _124
REMARK   39  A    between atoms: _127  and  _129
REMARK   40  A    between atoms: _129  and  _130
REMARK   41  A    between atoms: _129  and  _132
REMARK   42  A    between atoms: _132  and  _133
REMARK   43  A    between atoms: _136  and  _138
REMARK   44  A    between atoms: _138  and  _139
REMARK   45  A    between atoms: _138  and  _141
REMARK   46  A    between atoms: _141  and  _142
REMARK   47  A    between atoms: _145  and  _147
REMARK   48  A    between atoms: _147  and  _148
REMARK   49  A    between atoms: _147  and  _150
REMARK   50  A    between atoms: _150  and  _151
REMARK   51  A    between atoms: _156  and  _157
REMARK   52  A    between atoms: _159  and  _161
REMARK   53  A    between atoms: _161  and  _162
REMARK   54  A    between atoms: _161  and  _164
REMARK   55  A    between atoms: _164  and  _165
REMARK   56  A    between atoms: _170  and  _171
REMARK   57  A    between atoms: _173  and  _175
REMARK   58  A    between atoms: _175  and  _176
REMARK   59  A    between atoms: _175  and  _178
REMARK   60  A    between atoms: _178  and  _179
REMARK   61  A    between atoms: _181  and  _183
REMARK   62  A    between atoms: _183  and  _184
REMARK   63  A    between atoms: _183  and  _186
REMARK   64  A    between atoms: _186  and  _187
REMARK   65  A    between atoms: _187  and  _188
REMARK   66  A    between atoms: _188  and  _189
REMARK   67  A    between atoms: _198  and  _200
REMARK   68  A    between atoms: _200  and  _201
REMARK   69  A    between atoms: _200  and  _203
REMARK   70  A    between atoms: _203  and  _204
REMARK   71  A    between atoms: _204  and  _205
REMARK   72  A    between atoms: _210  and  _212
REMARK   73  A    between atoms: _212  and  _213
REMARK   74  A    between atoms: _212  and  _215
REMARK   75  A    between atoms: _215  and  _216
REMARK   76  A    between atoms: _219  and  _221
REMARK   77  A    between atoms: _221  and  _222
REMARK   78  A    between atoms: _221  and  _224
REMARK   79  A    between atoms: _224  and  _225
REMARK   80  A    between atoms: _230  and  _232
REMARK   81  A    between atoms: _232  and  _233
REMARK   82  A    between atoms: _232  and  _235
REMARK   83  A    between atoms: _235  and  _236
REMARK   84  A    between atoms: _241  and  _243
REMARK   85  A    between atoms: _243  and  _244
REMARK   86  A    between atoms: _243  and  _246
REMARK   87  A    between atoms: _246  and  _247
REMARK   88  A    between atoms: _252  and  _253
REMARK   89  A    between atoms: _255  and  _257
REMARK   90  A    between atoms: _257  and  _258
REMARK   91  A    between atoms: _257  and  _260
REMARK   92  A    between atoms: _260  and  _261
REMARK   93  A    between atoms: _266  and  _268
REMARK   94  A    between atoms: _268  and  _269
REMARK   95  A    between atoms: _268  and  _271
REMARK   96  A    between atoms: _271  and  _272
REMARK   97  A    between atoms: _274  and  _276
REMARK   98  A    between atoms: _276  and  _277
REMARK   99  A    between atoms: _276  and  _279
REMARK  100  A    between atoms: _279  and  _280
REMARK  101  A    between atoms: _283  and  _285
REMARK  102  A    between atoms: _285  and  _286
REMARK  103  A    between atoms: _285  and  _288
REMARK  104  A    between atoms: _288  and  _289
REMARK  105  A    between atoms: _292  and  _294
REMARK  106  A    between atoms: _294  and  _295
REMARK  107  A    between atoms: _294  and  _297
REMARK  108  A    between atoms: _297  and  _298
REMARK  109  A    between atoms: _304  and  _306
REMARK  110  A    between atoms: _306  and  _307
REMARK  111  A    between atoms: _306  and  _309
REMARK  112  A    between atoms: _309  and  _310
REMARK                            x       y       z     vdW  Elec       q    Type
REMARK                         _______ _______ _______ _____ _____    ______ ____
ROOT
ATOM      1  CA  ARG A   2      20.822 -53.557  23.670  0.00  0.00    +0.137 C 
ENDROOT
BRANCH   1   3
ATOM      2  C   SER A   1      20.675 -53.154  21.283  0.00  0.00    +0.241 C 
ATOM      3  N   ARG A   2      21.427 -53.346  22.359  0.00  0.00    -0.298 N 
ATOM      4  H   ARG A   2      22.463 -53.346  22.267  0.00  0.00    +0.150 HD
ATOM      5  O   SER A   1      19.436 -53.147  21.323  0.00  0.00    -0.274 OA
BRANCH   2   6
ATOM      6  CA  SER A   1      21.432 -52.882  19.984  0.00  0.00    +0.174 C 
BRANCH   6   7
ATOM      7  N   SER A   1      20.651 -53.280  18.824  0.00  0.00    -0.236 NA
ATOM      8  H   SER A   1      19.618 -53.157  18.845  0.00  0.00    +0.142 HD
ENDBRANCH   6   7
BRANCH   6   9
ATOM      9  CB  SER A   1      21.746 -51.383  19.908  0.00  0.00    +0.163 C 
BRANCH   9  10
ATOM     10  OG  SER A   1      22.457 -50.961  21.062  0.00  0.00    -0.380 OA
ATOM     11  H   SER A   1      22.650 -49.992  20.994  0.00  0.00    +0.211 HD
ENDBRANCH   9  10
ENDBRANCH   6   9
ENDBRANCH   2   6
ENDBRANCH   1   3
BRANCH   1  12
ATOM     12  C   ARG A   2      20.423 -52.234  24.313  0.00  0.00    +0.227 C 
ATOM     13  O   ARG A   2      19.618 -52.205  25.235  0.00  0.00    -0.286 OA
ENDBRANCH   1  12
BRANCH   1  14
ATOM     14  CB  ARG A   2      21.790 -54.304  24.579  0.00  0.00    +0.031 C 
BRANCH  14  15
ATOM     15  CG  ARG A   2      21.219 -55.590  25.108  0.00  0.00    +0.045 C 
BRANCH  15  16
ATOM     16  CD  ARG A   2      22.255 -56.360  25.877  0.00  0.00    +0.174 C 
BRANCH  16  17
ATOM     17  NE  ARG A   2      22.020 -57.790  25.731  0.00  0.00    -0.265 N 
ATOM     18  HE  ARG A   2      21.140 -58.177  26.128  0.00  0.00    +0.259 HD
ATOM     19  CZ  ARG A   2      22.849 -58.637  25.126  0.00  0.00    +0.342 C 
ATOM     20  NH2 ARG A   2      22.518 -59.928  25.047  0.00  0.00    -0.292 N 
ATOM     21 HH21 ARG A   2      21.621 -60.261  25.456  0.00  0.00    +0.255 HD
ATOM     22 HH22 ARG A   2      23.157 -60.601  24.577  0.00  0.00    +0.255 HD
ATOM     23  NH1 ARG A   2      24.009 -58.214  24.614  0.00  0.00    -0.292 N 
ATOM     24 HH11 ARG A   2      24.274 -57.211  24.686  0.00  0.00    +0.255 HD
ATOM     25 HH12 ARG A   2      24.647 -58.888  24.144  0.00  0.00    +0.255 HD
ENDBRANCH  16  17
ENDBRANCH  15  16
ENDBRANCH  14  15
ENDBRANCH   1  14
TORSDOF 10
REMARK  Name = ../refined-set-2016/4avi/4avi_pocket.pdb
REMARK  112 active torsions:
REMARK  status: ('A' for Active; 'I' for Inactive)
REMARK    1  A    between atoms: _1  and  _5
REMARK    2  A    between atoms: _5  and  _6
REMARK    3  A    between atoms: _5  and  _8
REMARK    4  A    between atoms: _8  and  _9
REMARK    5  A    between atoms: _15  and  _17
REMARK    6  A    between atoms: _17  and  _18
REMARK    7  A    between atoms: _22  and  _23
REMARK    8  A    between atoms: _28  and  _30
REMARK    9  A    between atoms: _30  and  _31
REMARK   10  A    between atoms: _30  and  _33
REMARK   11  A    between atoms: _33  and  _34
REMARK   12  A    between atoms: _37  and  _39
REMARK   13  A    between atoms: _39  and  _40
REMARK   14  A    between atoms: _42  and  _44
REMARK   15  A    between atoms: _44  and  _45
REMARK   16  A    between atoms: _47  and  _49
REMARK   17  A    between atoms: _60  and  _63
REMARK   18  A    between atoms: _63  and  _64
REMARK   19  A    between atoms: _71  and  _72
REMARK   20  A    between atoms: _78  and  _80
REMARK   21  A    between atoms: _80  and  _81
REMARK   22  A    between atoms: _80  and  _83
REMARK   23  A    between atoms: _83  and  _84
REMARK   24  A    between atoms: _89  and  _90
REMARK   25  A    between atoms: _93  and  _94
REMARK   26  A    between atoms: _99  and  _101
REMARK   27  A    between atoms: _101  and  _102
REMARK   28  A    between atoms: _101  and  _104
REMARK   29  A    between atoms: _104  and  _105
REMARK   30  A    between atoms: _105  and  _106
REMARK   31  A    between atoms: _109  and  _111
REMARK   32  A    between atoms: _111  and  _112
REMARK   33  A    between atoms: _111  and  _114
REMARK   34  A    between atoms: _114  and  _115
REMARK   35  A    between atoms: _118  and  _120
REMARK   36  A    between atoms: _120  and  _121
REMARK   37  A    between atoms: _120  and  _123
REMARK   38  A    between atoms: _123  and  _124
REMARK   39  A    between atoms: _127  and  _129
REMARK   40  A    between atoms: _129  and  _130
REMARK   41  A    between atoms: _129  and  _132
REMARK   42  A    between atoms: _132  and  _133
REMARK   43  A    between atoms: _136  and  _138
REMARK   44  A    between atoms: _138  and  _139
REMARK   45  A    between atoms: _138  and  _141
REMARK   46  A    between atoms: _141  and  _142
REMARK   47  A    between atoms: _145  and  _147
REMARK   48  A    between atoms: _147  and  _148
REMARK   49  A    between atoms: _147  and  _150
REMARK   50  A    between atoms: _150  and  _151
REMARK   51  A    between atoms: _156  and  _157
REMARK   52  A    between atoms: _159  and  _161
REMARK   53  A    between atoms: _161  and  _162
REMARK   54  A    between atoms: _161  and  _164
REMARK   55  A    between atoms: _164  and  _165
REMARK   56  A    between atoms: _170  and  _171
REMARK   57  A    between atoms: _173  and  _175
REMARK   58  A    between atoms: _175  and  _176
REMARK   59  A    between atoms: _175  and  _178
REMARK   60  A    between atoms: _178  and  _179
REMARK   61  A    between atoms: _181  and  _183
REMARK   62  A    between atoms: _183  and  _184
REMARK   63  A    between atoms: _183  and  _186
REMARK   64  A    between atoms: _186  and  _187
REMARK   65  A    between atoms: _187  and  _188
REMARK   66  A    between atoms: _188  and  _189
REMARK   67  A    between atoms: _198  and  _200
REMARK   68  A    between atoms: _200  and  _201
REMARK   69  A    between atoms: _200  and  _203
REMARK   70  A    between atoms: _203  and  _204
REMARK   71  A    between atoms: _204  and  _205
REMARK   72  A    between atoms: _210  and  _212
REMARK   73  A    between atoms: _212  and  _213
REMARK   74  A    between atoms: _212  and  _215
REMARK   75  A    between atoms: _215  and  _216
REMARK   76  A    between atoms: _219  and  _221
REMARK   77  A    between atoms: _221  and  _222
REMARK   78  A    between atoms: _221  and  _224
REMARK   79  A    between atoms: _224  and  _225
REMARK   80  A    between atoms: _230  and  _232
REMARK   81  A    between atoms: _232  and  _233
REMARK   82  A    between atoms: _232  and  _235
REMARK   83  A    between atoms: _235  and  _236
REMARK   84  A    between atoms: _241  and  _243
REMARK   85  A    between atoms: _243  and  _244
REMARK   86  A    between atoms: _243  and  _246
REMARK   87  A    between atoms: _246  and  _247
REMARK   88  A    between atoms: _252  and  _253
REMARK   89  A    between atoms: _255  and  _257
REMARK   90  A    between atoms: _257  and  _258
REMARK   91  A    between atoms: _257  and  _260
REMARK   92  A    between atoms: _260  and  _261
REMARK   93  A    between atoms: _266  and  _268
REMARK   94  A    between atoms: _268  and  _269
REMARK   95  A    between atoms: _268  and  _271
REMARK   96  A    between atoms: _271  and  _272
REMARK   97  A    between atoms: _274  and  _276
REMARK   98  A    between atoms: _276  and  _277
REMARK   99  A    between atoms: _276  and  _279
REMARK  100  A    between atoms: _279  and  _280
REMARK  101  A    between atoms: _283  and  _285
REMARK  102  A    between atoms: _285  and  _286
REMARK  103  A    between atoms: _285  and  _288
REMARK  104  A    between atoms: _288  and  _289
REMARK  105  A    between atoms: _292  and  _294
REMARK  106  A    between atoms: _294  and  _295
REMARK  107  A    between atoms: _294  and  _297
REMARK  108  A    between atoms: _297  and  _298
REMARK  109  A    between atoms: _304  and  _306
REMARK  110  A    between atoms: _306  and  _307
REMARK  111  A    between atoms: _306  and  _309
REMARK  112  A    between atoms: _309  and  _310
REMARK                            x       y       z     vdW  Elec       q    Type
REMARK                         _______ _______ _______ _____ _____    ______ ____
ROOT
ATOM      1  CA  TYR A   5      16.018 -66.011  13.951  0.00  0.00    +0.153 C 
ENDROOT
BRANCH   1   2
ATOM      2  C   TYR A   5      14.956 -67.109  14.049  0.00  0.00    +0.241 C 
ATOM      3  N   ASN A   6      13.745 -66.743  14.436  0.00  0.00    -0.297 N 
ATOM      4  H   ASN A   6      13.543 -65.745  14.646  0.00  0.00    +0.150 HD
ATOM      5  O   TYR A   5      15.225 -68.278  13.770  0.00  0.00    -0.273 OA
BRANCH   3   6
ATOM      6  CA  ASN A   6      12.700 -67.742  14.566  0.00  0.00    +0.158 C 
BRANCH   6   7
ATOM      7  C   ASN A   6      11.362 -67.172  14.084  0.00  0.00    +0.241 C 
ATOM      8  N   SER A   7      10.259 -67.776  14.498  0.00  0.00    -0.295 N 
ATOM      9  H   SER A   7      10.324 -68.561  15.177  0.00  0.00    +0.150 HD
ATOM     10  O   ASN A   6      11.337 -66.179  13.353  0.00  0.00    -0.273 OA
BRANCH   8  11
ATOM     11  CA  SER A   7       8.954 -67.349  14.009  0.00  0.00    +0.178 C 
BRANCH  11  12
ATOM     12  C   SER A   7       8.249 -66.321  14.895  0.00  0.00    +0.243 C 
ATOM     13  N   ASP A   8       8.939 -65.768  15.889  0.00  0.00    -0.296 N 
ATOM     14  H   ASP A   8       9.901 -66.100  16.102  0.00  0.00    +0.150 HD
ATOM     15  O   SER A   7       7.084 -66.017  14.657  0.00  0.00    -0.273 OA
BRANCH  13  16
ATOM     16  CA  ASP A   8       8.345 -64.695  16.681  0.00  0.00    +0.160 C 
BRANCH  16  17
ATOM     17  C   ASP A   8       7.707 -63.594  15.810  0.00  0.00    +0.241 C 
ATOM     18  N   ASP A   9       6.475 -63.290  16.138  0.00  0.00    -0.297 N 
ATOM     19  H   ASP A   9       6.003 -63.819  16.899  0.00  0.00    +0.150 HD
ATOM     20  O   ASP A   8       8.304 -63.017  14.889  0.00  0.00    -0.273 OA
BRANCH  18  21
ATOM     21  CA  ASP A   9       5.765 -62.236  15.463  0.00  0.00    +0.160 C 
BRANCH  21  22
ATOM     22  C   ASP A   9       4.817 -61.670  16.528  0.00  0.00    +0.241 C 
ATOM     23  N   PHE A  10       5.210 -60.551  17.135  0.00  0.00    -0.298 N 
ATOM     24  H   PHE A  10       6.013 -60.025  16.736  0.00  0.00    +0.150 HD
ATOM     25  O   ASP A   9       3.777 -62.263  16.818  0.00  0.00    -0.273 OA
BRANCH  23  26
ATOM     26  CA  PHE A  10       4.559 -60.027  18.344  0.00  0.00    +0.141 C 
BRANCH  26  27
ATOM     27  C   PHE A  10       4.018 -58.597  18.185  0.00  0.00    +0.227 C 
ATOM     28  O   PHE A  10       4.580 -57.763  17.480  0.00  0.00    -0.286 OA
ENDBRANCH  26  27
BRANCH  26  29
ATOM     29  CB  PHE A  10       5.544 -60.021  19.519  0.00  0.00    +0.054 C 
BRANCH  29  30
ATOM     30  CG  PHE A  10       6.016 -61.385  19.928  0.00  0.00    -0.020 A 
ATOM     31  CD2 PHE A  10       5.115 -62.380  20.222  0.00  0.00    -0.004 A 
ATOM     32  CE2 PHE A  10       5.552 -63.646  20.593  0.00  0.00    -0.000 A 
ATOM     33  CZ  PHE A  10       6.905 -63.915  20.684  0.00  0.00    -0.000 A 
ATOM     34  CE1 PHE A  10       7.818 -62.913  20.415  0.00  0.00    -0.000 A 
ATOM     35  CD1 PHE A  10       7.367 -61.659  20.039  0.00  0.00    -0.004 A 
ENDBRANCH  29  30
ENDBRANCH  26  29
ENDBRANCH  23  26
ENDBRANCH  21  22
BRANCH  21  36
ATOM     36  CB  ASP A   9       5.049 -62.838  14.264  0.00  0.00    +0.143 C 
BRANCH  36  37
ATOM     37  CG  ASP A   9       4.351 -61.805  13.406  0.00  0.00    +0.367 C 
ATOM     38  OD2 ASP A   9       4.137 -60.647  13.824  0.00  0.00    -0.246 OA
ATOM     39  OD1 ASP A   9       3.988 -62.178  12.285  0.00  0.00    -0.246 OA
ENDBRANCH  36  37
ENDBRANCH  21  36
ENDBRANCH  18  21
ENDBRANCH  16  17
BRANCH  16  40
ATOM     40  CB  ASP A   8       9.370 -64.067  17.630  0.00  0.00    +0.143 C 
BRANCH  40  41
ATOM     41  CG  ASP A   8       9.830 -65.031  18.741  0.00  0.00    +0.367 C 
ATOM     42  OD2 ASP A   8      10.817 -64.713  19.436  0.00  0.00    -0.246 OA
ATOM     43  OD1 ASP A   8       9.232 -66.121  18.910  0.00  0.00    -0.246 OA
ENDBRANCH  40  41
ENDBRANCH  16  40
ENDBRANCH  13  16
ENDBRANCH  11  12
BRANCH  11  44
ATOM     44  CB  SER A   7       8.033 -68.556  13.814  0.00  0.00    +0.166 C 
BRANCH  44  45
ATOM     45  OG  SER A   7       7.902 -69.259  15.019  0.00  0.00    -0.380 OA
ATOM     46  H   SER A   7       8.793 -69.573  15.315  0.00  0.00    +0.211 HD
ENDBRANCH  44  45
ENDBRANCH  11  44
ENDBRANCH   8  11
ENDBRANCH   6   7
BRANCH   6  47
ATOM     47  CB  ASN A   6      12.638 -68.240  16.013  0.00  0.00    +0.114 C 
BRANCH  47  48
ATOM     48  CG  ASN A   6      12.333 -67.129  17.000  0.00  0.00    +0.222 C 
ATOM     49  ND2 ASN A   6      12.842 -67.268  18.236  0.00  0.00    -0.329 N 
ATOM     50 HD21 ASN A   6      12.674 -66.534  18.953  0.00  0.00    +0.145 HD
ATOM     51 HD22 ASN A   6      13.404 -68.110  18.475  0.00  0.00    +0.145 HD
ATOM     52  OD1 ASN A   6      11.658 -66.150  16.659  0.00  0.00    -0.275 OA
ENDBRANCH  47  48
ENDBRANCH   6  47
ENDBRANCH   3   6
ENDBRANCH   1   2
BRANCH   1  54
ATOM     53  C   ASN A   4      16.243 -64.405  12.158  0.00  0.00    +0.241 C 
ATOM     54  N   TYR A   5      15.552 -64.877  13.181  0.00  0.00    -0.297 N 
ATOM     55  H   TYR A   5      14.652 -64.423  13.439  0.00  0.00    +0.150 HD
ATOM     56  O   ASN A   4      17.232 -64.976  11.712  0.00  0.00    -0.273 OA
BRANCH  53  57
ATOM     57  CA  ASN A   4      15.741 -63.096  11.548  0.00  0.00    +0.158 C 
BRANCH  57  59
ATOM     58  C   ASN A   3      13.812 -61.998  12.571  0.00  0.00    +0.241 C 
ATOM     59  N   ASN A   4      15.117 -62.221  12.555  0.00  0.00    -0.297 N 
ATOM     60  H   ASN A   4      15.717 -61.766  13.272  0.00  0.00    +0.150 HD
ATOM     61  O   ASN A   3      13.054 -62.445  11.715  0.00  0.00    -0.273 OA
BRANCH  58  62
ATOM     62  CA  ASN A   3      13.277 -61.135  13.712  0.00  0.00    +0.158 C 
BRANCH  62  65
ATOM     63  C   THR A   2      11.195 -59.947  14.192  0.00  0.00    +0.243 C 
ATOM     64  O   THR A   2      11.797 -58.982  14.682  0.00  0.00    -0.273 OA
ATOM     65  N   ASN A   3      11.817 -61.024  13.703  0.00  0.00    -0.297 N 
ATOM     66  H   ASN A   3      11.251 -61.801  13.307  0.00  0.00    +0.150 HD
BRANCH  63  67
ATOM     67  CA  THR A   2       9.670 -59.946  14.134  0.00  0.00    +0.176 C 
BRANCH  67  70
ATOM     68  C   GLN A   1       8.273 -58.448  15.458  0.00  0.00    +0.238 C 
ATOM     69  O   GLN A   1       7.637 -59.348  15.961  0.00  0.00    -0.274 OA
ATOM     70  N   THR A   2       9.212 -58.638  14.540  0.00  0.00    -0.295 N 
ATOM     71  H   THR A   2       9.639 -57.803  14.090  0.00  0.00    +0.150 HD
BRANCH  68  72
ATOM     72  CA  GLN A   1       8.033 -57.016  15.892  0.00  0.00    +0.145 C 
BRANCH  72  73
ATOM     73  N   GLN A   1       6.620 -56.666  15.813  0.00  0.00    -0.238 NA
ATOM     74  H   GLN A   1       5.929 -57.233  16.344  0.00  0.00    +0.142 HD
ENDBRANCH  72  73
BRANCH  72  75
ATOM     75  CB  GLN A   1       8.552 -56.841  17.332  0.00  0.00    +0.036 C 
BRANCH  75  76
ATOM     76  CG  GLN A   1      10.003 -57.303  17.524  0.00  0.00    +0.087 C 
BRANCH  76  77
ATOM     77  CD  GLN A   1      10.122 -58.651  18.267  0.00  0.00    +0.219 C 
ATOM     78  OE1 GLN A   1       9.352 -58.947  19.180  0.00  0.00    -0.275 OA
ATOM     79  NE2 GLN A   1      11.095 -59.455  17.873  0.00  0.00    -0.329 N 
ATOM     80 HE21 GLN A   1      11.230 -60.375  18.339  0.00  0.00    +0.145 HD
ATOM     81 HE22 GLN A   1      11.725 -59.168  17.097  0.00  0.00    +0.145 HD
ENDBRANCH  76  77
ENDBRANCH  75  76
ENDBRANCH  72  75
ENDBRANCH  68  72
ENDBRANCH  67  70
BRANCH  67  82
ATOM     82  CB  THR A   2       9.244 -60.234  12.696  0.00  0.00    +0.137 C 
ATOM     83  CG2 THR A   2       7.751 -60.362  12.597  0.00  0.00    +0.034 C 
BRANCH  82  84
ATOM     84  OG1 THR A   2       9.667 -59.152  11.866  0.00  0.00    -0.382 OA
ATOM     85  HG1 THR A   2       9.395 -59.329  10.931  0.00  0.00    +0.210 HD
ENDBRANCH  82  84
ENDBRANCH  67  82
ENDBRANCH  63  67
ENDBRANCH  62  65
BRANCH  62  86
ATOM     86  CB  ASN A   3      13.753 -61.698  15.048  0.00  0.00    +0.114 C 
BRANCH  86  87
ATOM     87  CG  ASN A   3      13.235 -63.107  15.321  0.00  0.00    +0.222 C 
ATOM     88  ND2 ASN A   3      12.892 -63.370  16.578  0.00  0.00    -0.329 N 
ATOM     89 HD21 ASN A   3      12.982 -62.633  17.307  0.00  0.00    +0.145 HD
ATOM     90 HD22 ASN A   3      12.534 -64.312  16.833  0.00  0.00    +0.145 HD
ATOM     91  OD1 ASN A   3      13.146 -63.947  14.423  0.00  0.00    -0.275 OA
ENDBRANCH  86  87
ENDBRANCH  62  86
ENDBRANCH  58  62
ENDBRANCH  57  59
BRANCH  57  92
ATOM     92  CB  ASN A   4      16.927 -62.401  10.898  0.00  0.00    +0.114 C 
BRANCH  92  93
ATOM     93  CG  ASN A   4      18.083 -62.164  11.883  0.00  0.00    +0.222 C 
ATOM     94  OD1 ASN A   4      17.917 -62.282  13.106  0.00  0.00    -0.275 OA
ATOM     95  ND2 ASN A   4      19.249 -61.794  11.350  0.00  0.00    -0.329 N 
ATOM     96 HD21 ASN A   4      20.062 -61.592  11.967  0.00  0.00    +0.145 HD
ATOM     97 HD22 ASN A   4      19.345 -61.707  10.318  0.00  0.00    +0.145 HD
ENDBRANCH  92  93
ENDBRANCH  57  92
ENDBRANCH  53  57
ENDBRANCH   1  54
BRANCH   1  98
ATOM     98  CB  TYR A   5      16.444 -65.531  15.337  0.00  0.00    +0.055 C 
BRANCH  98  99
ATOM     99  CG  TYR A   5      16.798 -66.643  16.279  0.00  0.00    -0.020 A 
ATOM    100  CD2 TYR A   5      15.943 -66.987  17.316  0.00  0.00    -0.001 A 
ATOM    101  CE2 TYR A   5      16.238 -68.017  18.175  0.00  0.00    +0.036 A 
ATOM    102  CZ  TYR A   5      17.416 -68.723  18.027  0.00  0.00    +0.134 A 
ATOM    103  CE1 TYR A   5      18.299 -68.399  17.009  0.00  0.00    +0.036 A 
ATOM    104  CD1 TYR A   5      17.982 -67.357  16.137  0.00  0.00    -0.001 A 
BRANCH 102 105
ATOM    105  OH  TYR A   5      17.694 -69.740  18.916  0.00  0.00    -0.506 OA
ATOM    106  HH  TYR A   5      18.565 -70.150  18.685  0.00  0.00    +0.292 HD
ENDBRANCH 102 105
ENDBRANCH  98  99
ENDBRANCH   1  98
TORSDOF 42
REMARK  Name = ../refined-set-2016/4avi/4avi_pocket.pdb
REMARK  112 active torsions:
REMARK  status: ('A' for Active; 'I' for Inactive)
REMARK    1  A    between atoms: _1  and  _5
REMARK    2  A    between atoms: _5  and  _6
REMARK    3  A    between atoms: _5  and  _8
REMARK    4  A    between atoms: _8  and  _9
REMARK    5  A    between atoms: _15  and  _17
REMARK    6  A    between atoms: _17  and  _18
REMARK    7  A    between atoms: _22  and  _23
REMARK    8  A    between atoms: _28  and  _30
REMARK    9  A    between atoms: _30  and  _31
REMARK   10  A    between atoms: _30  and  _33
REMARK   11  A    between atoms: _33  and  _34
REMARK   12  A    between atoms: _37  and  _39
REMARK   13  A    between atoms: _39  and  _40
REMARK   14  A    between atoms: _42  and  _44
REMARK   15  A    between atoms: _44  and  _45
REMARK   16  A    between atoms: _47  and  _49
REMARK   17  A    between atoms: _60  and  _63
REMARK   18  A    between atoms: _63  and  _64
REMARK   19  A    between atoms: _71  and  _72
REMARK   20  A    between atoms: _78  and  _80
REMARK   21  A    between atoms: _80  and  _81
REMARK   22  A    between atoms: _80  and  _83
REMARK   23  A    between atoms: _83  and  _84
REMARK   24  A    between atoms: _89  and  _90
REMARK   25  A    between atoms: _93  and  _94
REMARK   26  A    between atoms: _99  and  _101
REMARK   27  A    between atoms: _101  and  _102
REMARK   28  A    between atoms: _101  and  _104
REMARK   29  A    between atoms: _104  and  _105
REMARK   30  A    between atoms: _105  and  _106
REMARK   31  A    between atoms: _109  and  _111
REMARK   32  A    between atoms: _111  and  _112
REMARK   33  A    between atoms: _111  and  _114
REMARK   34  A    between atoms: _114  and  _115
REMARK   35  A    between atoms: _118  and  _120
REMARK   36  A    between atoms: _120  and  _121
REMARK   37  A    between atoms: _120  and  _123
REMARK   38  A    between atoms: _123  and  _124
REMARK   39  A    between atoms: _127  and  _129
REMARK   40  A    between atoms: _129  and  _130
REMARK   41  A    between atoms: _129  and  _132
REMARK   42  A    between atoms: _132  and  _133
REMARK   43  A    between atoms: _136  and  _138
REMARK   44  A    between atoms: _138  and  _139
REMARK   45  A    between atoms: _138  and  _141
REMARK   46  A    between atoms: _141  and  _142
REMARK   47  A    between atoms: _145  and  _147
REMARK   48  A    between atoms: _147  and  _148
REMARK   49  A    between atoms: _147  and  _150
REMARK   50  A    between atoms: _150  and  _151
REMARK   51  A    between atoms: _156  and  _157
REMARK   52  A    between atoms: _159  and  _161
REMARK   53  A    between atoms: _161  and  _162
REMARK   54  A    between atoms: _161  and  _164
REMARK   55  A    between atoms: _164  and  _165
REMARK   56  A    between atoms: _170  and  _171
REMARK   57  A    between atoms: _173  and  _175
REMARK   58  A    between atoms: _175  and  _176
REMARK   59  A    between atoms: _175  and  _178
REMARK   60  A    between atoms: _178  and  _179
REMARK   61  A    between atoms: _181  and  _183
REMARK   62  A    between atoms: _183  and  _184
REMARK   63  A    between atoms: _183  and  _186
REMARK   64  A    between atoms: _186  and  _187
REMARK   65  A    between atoms: _187  and  _188
REMARK   66  A    between atoms: _188  and  _189
REMARK   67  A    between atoms: _198  and  _200
REMARK   68  A    between atoms: _200  and  _201
REMARK   69  A    between atoms: _200  and  _203
REMARK   70  A    between atoms: _203  and  _204
REMARK   71  A    between atoms: _204  and  _205
REMARK   72  A    between atoms: _210  and  _212
REMARK   73  A    between atoms: _212  and  _213
REMARK   74  A    between atoms: _212  and  _215
REMARK   75  A    between atoms: _215  and  _216
REMARK   76  A    between atoms: _219  and  _221
REMARK   77  A    between atoms: _221  and  _222
REMARK   78  A    between atoms: _221  and  _224
REMARK   79  A    between atoms: _224  and  _225
REMARK   80  A    between atoms: _230  and  _232
REMARK   81  A    between atoms: _232  and  _233
REMARK   82  A    between atoms: _232  and  _235
REMARK   83  A    between atoms: _235  and  _236
REMARK   84  A    between atoms: _241  and  _243
REMARK   85  A    between atoms: _243  and  _244
REMARK   86  A    between atoms: _243  and  _246
REMARK   87  A    between atoms: _246  and  _247
REMARK   88  A    between atoms: _252  and  _253
REMARK   89  A    between atoms: _255  and  _257
REMARK   90  A    between atoms: _257  and  _258
REMARK   91  A    between atoms: _257  and  _260
REMARK   92  A    between atoms: _260  and  _261
REMARK   93  A    between atoms: _266  and  _268
REMARK   94  A    between atoms: _268  and  _269
REMARK   95  A    between atoms: _268  and  _271
REMARK   96  A    between atoms: _271  and  _272
REMARK   97  A    between atoms: _274  and  _276
REMARK   98  A    between atoms: _276  and  _277
REMARK   99  A    between atoms: _276  and  _279
REMARK  100  A    between atoms: _279  and  _280
REMARK  101  A    between atoms: _283  and  _285
REMARK  102  A    between atoms: _285  and  _286
REMARK  103  A    between atoms: _285  and  _288
REMARK  104  A    between atoms: _288  and  _289
REMARK  105  A    between atoms: _292  and  _294
REMARK  106  A    between atoms: _294  and  _295
REMARK  107  A    between atoms: _294  and  _297
REMARK  108  A    between atoms: _297  and  _298
REMARK  109  A    between atoms: _304  and  _306
REMARK  110  A    between atoms: _306  and  _307
REMARK  111  A    between atoms: _306  and  _309
REMARK  112  A    between atoms: _309  and  _310
REMARK                            x       y       z     vdW  Elec       q    Type
REMARK                         _______ _______ _______ _____ _____    ______ ____
ROOT
ATOM      1  CB  PHE A   1       4.438 -53.620  21.282  0.00  0.00    +0.051 C 
ENDROOT
BRANCH   1   2
ATOM      2  CG  PHE A   1       5.465 -54.653  21.675  0.00  0.00    -0.020 A 
ATOM      3  CD2 PHE A   1       5.997 -54.669  22.958  0.00  0.00    -0.004 A 
ATOM      4  CE2 PHE A   1       6.939 -55.628  23.339  0.00  0.00    -0.000 A 
ATOM      5  CZ  PHE A   1       7.360 -56.583  22.429  0.00  0.00    -0.000 A 
ATOM      6  CE1 PHE A   1       6.844 -56.581  21.149  0.00  0.00    -0.000 A 
ATOM      7  CD1 PHE A   1       5.898 -55.615  20.768  0.00  0.00    -0.004 A 
ENDBRANCH   1   2
BRANCH   1   8
ATOM      8  CA  PHE A   1       3.015 -54.171  21.216  0.00  0.00    +0.137 C 
BRANCH   8   9
ATOM      9  N   PHE A   1       2.875 -55.058  20.071  0.00  0.00    -0.239 NA
ATOM     10  H   PHE A   1       3.097 -54.678  19.129  0.00  0.00    +0.142 HD
ENDBRANCH   8   9
BRANCH   8  11
ATOM     11  C   PHE A   1       2.025 -53.059  20.986  0.00  0.00    +0.224 C 
ATOM     12  O   PHE A   1       2.195 -52.236  20.065  0.00  0.00    -0.287 OA
ENDBRANCH   8  11
ENDBRANCH   1   8
TORSDOF 4
REMARK  Name = ../refined-set-2016/4avi/4avi_pocket.pdb
REMARK  112 active torsions:
REMARK  status: ('A' for Active; 'I' for Inactive)
REMARK    1  A    between atoms: _1  and  _5
REMARK    2  A    between atoms: _5  and  _6
REMARK    3  A    between atoms: _5  and  _8
REMARK    4  A    between atoms: _8  and  _9
REMARK    5  A    between atoms: _15  and  _17
REMARK    6  A    between atoms: _17  and  _18
REMARK    7  A    between atoms: _22  and  _23
REMARK    8  A    between atoms: _28  and  _30
REMARK    9  A    between atoms: _30  and  _31
REMARK   10  A    between atoms: _30  and  _33
REMARK   11  A    between atoms: _33  and  _34
REMARK   12  A    between atoms: _37  and  _39
REMARK   13  A    between atoms: _39  and  _40
REMARK   14  A    between atoms: _42  and  _44
REMARK   15  A    between atoms: _44  and  _45
REMARK   16  A    between atoms: _47  and  _49
REMARK   17  A    between atoms: _60  and  _63
REMARK   18  A    between atoms: _63  and  _64
REMARK   19  A    between atoms: _71  and  _72
REMARK   20  A    between atoms: _78  and  _80
REMARK   21  A    between atoms: _80  and  _81
REMARK   22  A    between atoms: _80  and  _83
REMARK   23  A    between atoms: _83  and  _84
REMARK   24  A    between atoms: _89  and  _90
REMARK   25  A    between atoms: _93  and  _94
REMARK   26  A    between atoms: _99  and  _101
REMARK   27  A    between atoms: _101  and  _102
REMARK   28  A    between atoms: _101  and  _104
REMARK   29  A    between atoms: _104  and  _105
REMARK   30  A    between atoms: _105  and  _106
REMARK   31  A    between atoms: _109  and  _111
REMARK   32  A    between atoms: _111  and  _112
REMARK   33  A    between atoms: _111  and  _114
REMARK   34  A    between atoms: _114  and  _115
REMARK   35  A    between atoms: _118  and  _120
REMARK   36  A    between atoms: _120  and  _121
REMARK   37  A    between atoms: _120  and  _123
REMARK   38  A    between atoms: _123  and  _124
REMARK   39  A    between atoms: _127  and  _129
REMARK   40  A    between atoms: _129  and  _130
REMARK   41  A    between atoms: _129  and  _132
REMARK   42  A    between atoms: _132  and  _133
REMARK   43  A    between atoms: _136  and  _138
REMARK   44  A    between atoms: _138  and  _139
REMARK   45  A    between atoms: _138  and  _141
REMARK   46  A    between atoms: _141  and  _142
REMARK   47  A    between atoms: _145  and  _147
REMARK   48  A    between atoms: _147  and  _148
REMARK   49  A    between atoms: _147  and  _150
REMARK   50  A    between atoms: _150  and  _151
REMARK   51  A    between atoms: _156  and  _157
REMARK   52  A    between atoms: _159  and  _161
REMARK   53  A    between atoms: _161  and  _162
REMARK   54  A    between atoms: _161  and  _164
REMARK   55  A    between atoms: _164  and  _165
REMARK   56  A    between atoms: _170  and  _171
REMARK   57  A    between atoms: _173  and  _175
REMARK   58  A    between atoms: _175  and  _176
REMARK   59  A    between atoms: _175  and  _178
REMARK   60  A    between atoms: _178  and  _179
REMARK   61  A    between atoms: _181  and  _183
REMARK   62  A    between atoms: _183  and  _184
REMARK   63  A    between atoms: _183  and  _186
REMARK   64  A    between atoms: _186  and  _187
REMARK   65  A    between atoms: _187  and  _188
REMARK   66  A    between atoms: _188  and  _189
REMARK   67  A    between atoms: _198  and  _200
REMARK   68  A    between atoms: _200  and  _201
REMARK   69  A    between atoms: _200  and  _203
REMARK   70  A    between atoms: _203  and  _204
REMARK   71  A    between atoms: _204  and  _205
REMARK   72  A    between atoms: _210  and  _212
REMARK   73  A    between atoms: _212  and  _213
REMARK   74  A    between atoms: _212  and  _215
REMARK   75  A    between atoms: _215  and  _216
REMARK   76  A    between atoms: _219  and  _221
REMARK   77  A    between atoms: _221  and  _222
REMARK   78  A    between atoms: _221  and  _224
REMARK   79  A    between atoms: _224  and  _225
REMARK   80  A    between atoms: _230  and  _232
REMARK   81  A    between atoms: _232  and  _233
REMARK   82  A    between atoms: _232  and  _235
REMARK   83  A    between atoms: _235  and  _236
REMARK   84  A    between atoms: _241  and  _243
REMARK   85  A    between atoms: _243  and  _244
REMARK   86  A    between atoms: _243  and  _246
REMARK   87  A    between atoms: _246  and  _247
REMARK   88  A    between atoms: _252  and  _253
REMARK   89  A    between atoms: _255  and  _257
REMARK   90  A    between atoms: _257  and  _258
REMARK   91  A    between atoms: _257  and  _260
REMARK   92  A    between atoms: _260  and  _261
REMARK   93  A    between atoms: _266  and  _268
REMARK   94  A    between atoms: _268  and  _269
REMARK   95  A    between atoms: _268  and  _271
REMARK   96  A    between atoms: _271  and  _272
REMARK   97  A    between atoms: _274  and  _276
REMARK   98  A    between atoms: _276  and  _277
REMARK   99  A    between atoms: _276  and  _279
REMARK  100  A    between atoms: _279  and  _280
REMARK  101  A    between atoms: _283  and  _285
REMARK  102  A    between atoms: _285  and  _286
REMARK  103  A    between atoms: _285  and  _288
REMARK  104  A    between atoms: _288  and  _289
REMARK  105  A    between atoms: _292  and  _294
REMARK  106  A    between atoms: _294  and  _295
REMARK  107  A    between atoms: _294  and  _297
REMARK  108  A    between atoms: _297  and  _298
REMARK  109  A    between atoms: _304  and  _306
REMARK  110  A    between atoms: _306  and  _307
REMARK  111  A    between atoms: _306  and  _309
REMARK  112  A    between atoms: _309  and  _310
REMARK                            x       y       z     vdW  Elec       q    Type
REMARK                         _______ _______ _______ _____ _____    ______ ____
ROOT
ATOM      1  O   HOH     1       9.549 -59.762  21.834  0.00  0.00    +0.000 OA
ENDROOT
TORSDOF 0
REMARK  Name = ../refined-set-2016/4avi/4avi_pocket.pdb
REMARK  112 active torsions:
REMARK  status: ('A' for Active; 'I' for Inactive)
REMARK    1  A    between atoms: _1  and  _5
REMARK    2  A    between atoms: _5  and  _6
REMARK    3  A    between atoms: _5  and  _8
REMARK    4  A    between atoms: _8  and  _9
REMARK    5  A    between atoms: _15  and  _17
REMARK    6  A    between atoms: _17  and  _18
REMARK    7  A    between atoms: _22  and  _23
REMARK    8  A    between atoms: _28  and  _30
REMARK    9  A    between atoms: _30  and  _31
REMARK   10  A    between atoms: _30  and  _33
REMARK   11  A    between atoms: _33  and  _34
REMARK   12  A    between atoms: _37  and  _39
REMARK   13  A    between atoms: _39  and  _40
REMARK   14  A    between atoms: _42  and  _44
REMARK   15  A    between atoms: _44  and  _45
REMARK   16  A    between atoms: _47  and  _49
REMARK   17  A    between atoms: _60  and  _63
REMARK   18  A    between atoms: _63  and  _64
REMARK   19  A    between atoms: _71  and  _72
REMARK   20  A    between atoms: _78  and  _80
REMARK   21  A    between atoms: _80  and  _81
REMARK   22  A    between atoms: _80  and  _83
REMARK   23  A    between atoms: _83  and  _84
REMARK   24  A    between atoms: _89  and  _90
REMARK   25  A    between atoms: _93  and  _94
REMARK   26  A    between atoms: _99  and  _101
REMARK   27  A    between atoms: _101  and  _102
REMARK   28  A    between atoms: _101  and  _104
REMARK   29  A    between atoms: _104  and  _105
REMARK   30  A    between atoms: _105  and  _106
REMARK   31  A    between atoms: _109  and  _111
REMARK   32  A    between atoms: _111  and  _112
REMARK   33  A    between atoms: _111  and  _114
REMARK   34  A    between atoms: _114  and  _115
REMARK   35  A    between atoms: _118  and  _120
REMARK   36  A    between atoms: _120  and  _121
REMARK   37  A    between atoms: _120  and  _123
REMARK   38  A    between atoms: _123  and  _124
REMARK   39  A    between atoms: _127  and  _129
REMARK   40  A    between atoms: _129  and  _130
REMARK   41  A    between atoms: _129  and  _132
REMARK   42  A    between atoms: _132  and  _133
REMARK   43  A    between atoms: _136  and  _138
REMARK   44  A    between atoms: _138  and  _139
REMARK   45  A    between atoms: _138  and  _141
REMARK   46  A    between atoms: _141  and  _142
REMARK   47  A    between atoms: _145  and  _147
REMARK   48  A    between atoms: _147  and  _148
REMARK   49  A    between atoms: _147  and  _150
REMARK   50  A    between atoms: _150  and  _151
REMARK   51  A    between atoms: _156  and  _157
REMARK   52  A    between atoms: _159  and  _161
REMARK   53  A    between atoms: _161  and  _162
REMARK   54  A    between atoms: _161  and  _164
REMARK   55  A    between atoms: _164  and  _165
REMARK   56  A    between atoms: _170  and  _171
REMARK   57  A    between atoms: _173  and  _175
REMARK   58  A    between atoms: _175  and  _176
REMARK   59  A    between atoms: _175  and  _178
REMARK   60  A    between atoms: _178  and  _179
REMARK   61  A    between atoms: _181  and  _183
REMARK   62  A    between atoms: _183  and  _184
REMARK   63  A    between atoms: _183  and  _186
REMARK   64  A    between atoms: _186  and  _187
REMARK   65  A    between atoms: _187  and  _188
REMARK   66  A    between atoms: _188  and  _189
REMARK   67  A    between atoms: _198  and  _200
REMARK   68  A    between atoms: _200  and  _201
REMARK   69  A    between atoms: _200  and  _203
REMARK   70  A    between atoms: _203  and  _204
REMARK   71  A    between atoms: _204  and  _205
REMARK   72  A    between atoms: _210  and  _212
REMARK   73  A    between atoms: _212  and  _213
REMARK   74  A    between atoms: _212  and  _215
REMARK   75  A    between atoms: _215  and  _216
REMARK   76  A    between atoms: _219  and  _221
REMARK   77  A    between atoms: _221  and  _222
REMARK   78  A    between atoms: _221  and  _224
REMARK   79  A    between atoms: _224  and  _225
REMARK   80  A    between atoms: _230  and  _232
REMARK   81  A    between atoms: _232  and  _233
REMARK   82  A    between atoms: _232  and  _235
REMARK   83  A    between atoms: _235  and  _236
REMARK   84  A    between atoms: _241  and  _243
REMARK   85  A    between atoms: _243  and  _244
REMARK   86  A    between atoms: _243  and  _246
REMARK   87  A    between atoms: _246  and  _247
REMARK   88  A    between atoms: _252  and  _253
REMARK   89  A    between atoms: _255  and  _257
REMARK   90  A    between atoms: _257  and  _258
REMARK   91  A    between atoms: _257  and  _260
REMARK   92  A    between atoms: _260  and  _261
REMARK   93  A    between atoms: _266  and  _268
REMARK   94  A    between atoms: _268  and  _269
REMARK   95  A    between atoms: _268  and  _271
REMARK   96  A    between atoms: _271  and  _272
REMARK   97  A    between atoms: _274  and  _276
REMARK   98  A    between atoms: _276  and  _277
REMARK   99  A    between atoms: _276  and  _279
REMARK  100  A    between atoms: _279  and  _280
REMARK  101  A    between atoms: _283  and  _285
REMARK  102  A    between atoms: _285  and  _286
REMARK  103  A    between atoms: _285  and  _288
REMARK  104  A    between atoms: _288  and  _289
REMARK  105  A    between atoms: _292  and  _294
REMARK  106  A    between atoms: _294  and  _295
REMARK  107  A    between atoms: _294  and  _297
REMARK  108  A    between atoms: _297  and  _298
REMARK  109  A    between atoms: _304  and  _306
REMARK  110  A    between atoms: _306  and  _307
REMARK  111  A    between atoms: _306  and  _309
REMARK  112  A    between atoms: _309  and  _310
REMARK                            x       y       z     vdW  Elec       q    Type
REMARK                         _______ _______ _______ _____ _____    ______ ____
ROOT
ATOM      1  O   HOH     1       8.449 -64.596  27.972  0.00  0.00    +0.000 OA
ENDROOT
TORSDOF 0
REMARK  Name = ../refined-set-2016/4avi/4avi_pocket.pdb
REMARK  112 active torsions:
REMARK  status: ('A' for Active; 'I' for Inactive)
REMARK    1  A    between atoms: _1  and  _5
REMARK    2  A    between atoms: _5  and  _6
REMARK    3  A    between atoms: _5  and  _8
REMARK    4  A    between atoms: _8  and  _9
REMARK    5  A    between atoms: _15  and  _17
REMARK    6  A    between atoms: _17  and  _18
REMARK    7  A    between atoms: _22  and  _23
REMARK    8  A    between atoms: _28  and  _30
REMARK    9  A    between atoms: _30  and  _31
REMARK   10  A    between atoms: _30  and  _33
REMARK   11  A    between atoms: _33  and  _34
REMARK   12  A    between atoms: _37  and  _39
REMARK   13  A    between atoms: _39  and  _40
REMARK   14  A    between atoms: _42  and  _44
REMARK   15  A    between atoms: _44  and  _45
REMARK   16  A    between atoms: _47  and  _49
REMARK   17  A    between atoms: _60  and  _63
REMARK   18  A    between atoms: _63  and  _64
REMARK   19  A    between atoms: _71  and  _72
REMARK   20  A    between atoms: _78  and  _80
REMARK   21  A    between atoms: _80  and  _81
REMARK   22  A    between atoms: _80  and  _83
REMARK   23  A    between atoms: _83  and  _84
REMARK   24  A    between atoms: _89  and  _90
REMARK   25  A    between atoms: _93  and  _94
REMARK   26  A    between atoms: _99  and  _101
REMARK   27  A    between atoms: _101  and  _102
REMARK   28  A    between atoms: _101  and  _104
REMARK   29  A    between atoms: _104  and  _105
REMARK   30  A    between atoms: _105  and  _106
REMARK   31  A    between atoms: _109  and  _111
REMARK   32  A    between atoms: _111  and  _112
REMARK   33  A    between atoms: _111  and  _114
REMARK   34  A    between atoms: _114  and  _115
REMARK   35  A    between atoms: _118  and  _120
REMARK   36  A    between atoms: _120  and  _121
REMARK   37  A    between atoms: _120  and  _123
REMARK   38  A    between atoms: _123  and  _124
REMARK   39  A    between atoms: _127  and  _129
REMARK   40  A    between atoms: _129  and  _130
REMARK   41  A    between atoms: _129  and  _132
REMARK   42  A    between atoms: _132  and  _133
REMARK   43  A    between atoms: _136  and  _138
REMARK   44  A    between atoms: _138  and  _139
REMARK   45  A    between atoms: _138  and  _141
REMARK   46  A    between atoms: _141  and  _142
REMARK   47  A    between atoms: _145  and  _147
REMARK   48  A    between atoms: _147  and  _148
REMARK   49  A    between atoms: _147  and  _150
REMARK   50  A    between atoms: _150  and  _151
REMARK   51  A    between atoms: _156  and  _157
REMARK   52  A    between atoms: _159  and  _161
REMARK   53  A    between atoms: _161  and  _162
REMARK   54  A    between atoms: _161  and  _164
REMARK   55  A    between atoms: _164  and  _165
REMARK   56  A    between atoms: _170  and  _171
REMARK   57  A    between atoms: _173  and  _175
REMARK   58  A    between atoms: _175  and  _176
REMARK   59  A    between atoms: _175  and  _178
REMARK   60  A    between atoms: _178  and  _179
REMARK   61  A    between atoms: _181  and  _183
REMARK   62  A    between atoms: _183  and  _184
REMARK   63  A    between atoms: _183  and  _186
REMARK   64  A    between atoms: _186  and  _187
REMARK   65  A    between atoms: _187  and  _188
REMARK   66  A    between atoms: _188  and  _189
REMARK   67  A    between atoms: _198  and  _200
REMARK   68  A    between atoms: _200  and  _201
REMARK   69  A    between atoms: _200  and  _203
REMARK   70  A    between atoms: _203  and  _204
REMARK   71  A    between atoms: _204  and  _205
REMARK   72  A    between atoms: _210  and  _212
REMARK   73  A    between atoms: _212  and  _213
REMARK   74  A    between atoms: _212  and  _215
REMARK   75  A    between atoms: _215  and  _216
REMARK   76  A    between atoms: _219  and  _221
REMARK   77  A    between atoms: _221  and  _222
REMARK   78  A    between atoms: _221  and  _224
REMARK   79  A    between atoms: _224  and  _225
REMARK   80  A    between atoms: _230  and  _232
REMARK   81  A    between atoms: _232  and  _233
REMARK   82  A    between atoms: _232  and  _235
REMARK   83  A    between atoms: _235  and  _236
REMARK   84  A    between atoms: _241  and  _243
REMARK   85  A    between atoms: _243  and  _244
REMARK   86  A    between atoms: _243  and  _246
REMARK   87  A    between atoms: _246  and  _247
REMARK   88  A    between atoms: _252  and  _253
REMARK   89  A    between atoms: _255  and  _257
REMARK   90  A    between atoms: _257  and  _258
REMARK   91  A    between atoms: _257  and  _260
REMARK   92  A    between atoms: _260  and  _261
REMARK   93  A    between atoms: _266  and  _268
REMARK   94  A    between atoms: _268  and  _269
REMARK   95  A    between atoms: _268  and  _271
REMARK   96  A    between atoms: _271  and  _272
REMARK   97  A    between atoms: _274  and  _276
REMARK   98  A    between atoms: _276  and  _277
REMARK   99  A    between atoms: _276  and  _279
REMARK  100  A    between atoms: _279  and  _280
REMARK  101  A    between atoms: _283  and  _285
REMARK  102  A    between atoms: _285  and  _286
REMARK  103  A    between atoms: _285  and  _288
REMARK  104  A    between atoms: _288  and  _289
REMARK  105  A    between atoms: _292  and  _294
REMARK  106  A    between atoms: _294  and  _295
REMARK  107  A    between atoms: _294  and  _297
REMARK  108  A    between atoms: _297  and  _298
REMARK  109  A    between atoms: _304  and  _306
REMARK  110  A    between atoms: _306  and  _307
REMARK  111  A    between atoms: _306  and  _309
REMARK  112  A    between atoms: _309  and  _310
REMARK                            x       y       z     vdW  Elec       q    Type
REMARK                         _______ _______ _______ _____ _____    ______ ____
ROOT
ATOM      1  O   HOH     1       7.899 -61.916  28.976  0.00  0.00    +0.000 OA
ENDROOT
TORSDOF 0
REMARK  Name = ../refined-set-2016/4avi/4avi_pocket.pdb
REMARK  112 active torsions:
REMARK  status: ('A' for Active; 'I' for Inactive)
REMARK    1  A    between atoms: _1  and  _5
REMARK    2  A    between atoms: _5  and  _6
REMARK    3  A    between atoms: _5  and  _8
REMARK    4  A    between atoms: _8  and  _9
REMARK    5  A    between atoms: _15  and  _17
REMARK    6  A    between atoms: _17  and  _18
REMARK    7  A    between atoms: _22  and  _23
REMARK    8  A    between atoms: _28  and  _30
REMARK    9  A    between atoms: _30  and  _31
REMARK   10  A    between atoms: _30  and  _33
REMARK   11  A    between atoms: _33  and  _34
REMARK   12  A    between atoms: _37  and  _39
REMARK   13  A    between atoms: _39  and  _40
REMARK   14  A    between atoms: _42  and  _44
REMARK   15  A    between atoms: _44  and  _45
REMARK   16  A    between atoms: _47  and  _49
REMARK   17  A    between atoms: _60  and  _63
REMARK   18  A    between atoms: _63  and  _64
REMARK   19  A    between atoms: _71  and  _72
REMARK   20  A    between atoms: _78  and  _80
REMARK   21  A    between atoms: _80  and  _81
REMARK   22  A    between atoms: _80  and  _83
REMARK   23  A    between atoms: _83  and  _84
REMARK   24  A    between atoms: _89  and  _90
REMARK   25  A    between atoms: _93  and  _94
REMARK   26  A    between atoms: _99  and  _101
REMARK   27  A    between atoms: _101  and  _102
REMARK   28  A    between atoms: _101  and  _104
REMARK   29  A    between atoms: _104  and  _105
REMARK   30  A    between atoms: _105  and  _106
REMARK   31  A    between atoms: _109  and  _111
REMARK   32  A    between atoms: _111  and  _112
REMARK   33  A    between atoms: _111  and  _114
REMARK   34  A    between atoms: _114  and  _115
REMARK   35  A    between atoms: _118  and  _120
REMARK   36  A    between atoms: _120  and  _121
REMARK   37  A    between atoms: _120  and  _123
REMARK   38  A    between atoms: _123  and  _124
REMARK   39  A    between atoms: _127  and  _129
REMARK   40  A    between atoms: _129  and  _130
REMARK   41  A    between atoms: _129  and  _132
REMARK   42  A    between atoms: _132  and  _133
REMARK   43  A    between atoms: _136  and  _138
REMARK   44  A    between atoms: _138  and  _139
REMARK   45  A    between atoms: _138  and  _141
REMARK   46  A    between atoms: _141  and  _142
REMARK   47  A    between atoms: _145  and  _147
REMARK   48  A    between atoms: _147  and  _148
REMARK   49  A    between atoms: _147  and  _150
REMARK   50  A    between atoms: _150  and  _151
REMARK   51  A    between atoms: _156  and  _157
REMARK   52  A    between atoms: _159  and  _161
REMARK   53  A    between atoms: _161  and  _162
REMARK   54  A    between atoms: _161  and  _164
REMARK   55  A    between atoms: _164  and  _165
REMARK   56  A    between atoms: _170  and  _171
REMARK   57  A    between atoms: _173  and  _175
REMARK   58  A    between atoms: _175  and  _176
REMARK   59  A    between atoms: _175  and  _178
REMARK   60  A    between atoms: _178  and  _179
REMARK   61  A    between atoms: _181  and  _183
REMARK   62  A    between atoms: _183  and  _184
REMARK   63  A    between atoms: _183  and  _186
REMARK   64  A    between atoms: _186  and  _187
REMARK   65  A    between atoms: _187  and  _188
REMARK   66  A    between atoms: _188  and  _189
REMARK   67  A    between atoms: _198  and  _200
REMARK   68  A    between atoms: _200  and  _201
REMARK   69  A    between atoms: _200  and  _203
REMARK   70  A    between atoms: _203  and  _204
REMARK   71  A    between atoms: _204  and  _205
REMARK   72  A    between atoms: _210  and  _212
REMARK   73  A    between atoms: _212  and  _213
REMARK   74  A    between atoms: _212  and  _215
REMARK   75  A    between atoms: _215  and  _216
REMARK   76  A    between atoms: _219  and  _221
REMARK   77  A    between atoms: _221  and  _222
REMARK   78  A    between atoms: _221  and  _224
REMARK   79  A    between atoms: _224  and  _225
REMARK   80  A    between atoms: _230  and  _232
REMARK   81  A    between atoms: _232  and  _233
REMARK   82  A    between atoms: _232  and  _235
REMARK   83  A    between atoms: _235  and  _236
REMARK   84  A    between atoms: _241  and  _243
REMARK   85  A    between atoms: _243  and  _244
REMARK   86  A    between atoms: _243  and  _246
REMARK   87  A    between atoms: _246  and  _247
REMARK   88  A    between atoms: _252  and  _253
REMARK   89  A    between atoms: _255  and  _257
REMARK   90  A    between atoms: _257  and  _258
REMARK   91  A    between atoms: _257  and  _260
REMARK   92  A    between atoms: _260  and  _261
REMARK   93  A    between atoms: _266  and  _268
REMARK   94  A    between atoms: _268  and  _269
REMARK   95  A    between atoms: _268  and  _271
REMARK   96  A    between atoms: _271  and  _272
REMARK   97  A    between atoms: _274  and  _276
REMARK   98  A    between atoms: _276  and  _277
REMARK   99  A    between atoms: _276  and  _279
REMARK  100  A    between atoms: _279  and  _280
REMARK  101  A    between atoms: _283  and  _285
REMARK  102  A    between atoms: _285  and  _286
REMARK  103  A    between atoms: _285  and  _288
REMARK  104  A    between atoms: _288  and  _289
REMARK  105  A    between atoms: _292  and  _294
REMARK  106  A    between atoms: _294  and  _295
REMARK  107  A    between atoms: _294  and  _297
REMARK  108  A    between atoms: _297  and  _298
REMARK  109  A    between atoms: _304  and  _306
REMARK  110  A    between atoms: _306  and  _307
REMARK  111  A    between atoms: _306  and  _309
REMARK  112  A    between atoms: _309  and  _310
REMARK                            x       y       z     vdW  Elec       q    Type
REMARK                         _______ _______ _______ _____ _____    ______ ____
ROOT
ATOM      1  O   HOH     1      10.776 -59.112  29.280  0.00  0.00    +0.000 OA
ENDROOT
TORSDOF 0
REMARK  Name = ../refined-set-2016/4avi/4avi_pocket.pdb
REMARK  112 active torsions:
REMARK  status: ('A' for Active; 'I' for Inactive)
REMARK    1  A    between atoms: _1  and  _5
REMARK    2  A    between atoms: _5  and  _6
REMARK    3  A    between atoms: _5  and  _8
REMARK    4  A    between atoms: _8  and  _9
REMARK    5  A    between atoms: _15  and  _17
REMARK    6  A    between atoms: _17  and  _18
REMARK    7  A    between atoms: _22  and  _23
REMARK    8  A    between atoms: _28  and  _30
REMARK    9  A    between atoms: _30  and  _31
REMARK   10  A    between atoms: _30  and  _33
REMARK   11  A    between atoms: _33  and  _34
REMARK   12  A    between atoms: _37  and  _39
REMARK   13  A    between atoms: _39  and  _40
REMARK   14  A    between atoms: _42  and  _44
REMARK   15  A    between atoms: _44  and  _45
REMARK   16  A    between atoms: _47  and  _49
REMARK   17  A    between atoms: _60  and  _63
REMARK   18  A    between atoms: _63  and  _64
REMARK   19  A    between atoms: _71  and  _72
REMARK   20  A    between atoms: _78  and  _80
REMARK   21  A    between atoms: _80  and  _81
REMARK   22  A    between atoms: _80  and  _83
REMARK   23  A    between atoms: _83  and  _84
REMARK   24  A    between atoms: _89  and  _90
REMARK   25  A    between atoms: _93  and  _94
REMARK   26  A    between atoms: _99  and  _101
REMARK   27  A    between atoms: _101  and  _102
REMARK   28  A    between atoms: _101  and  _104
REMARK   29  A    between atoms: _104  and  _105
REMARK   30  A    between atoms: _105  and  _106
REMARK   31  A    between atoms: _109  and  _111
REMARK   32  A    between atoms: _111  and  _112
REMARK   33  A    between atoms: _111  and  _114
REMARK   34  A    between atoms: _114  and  _115
REMARK   35  A    between atoms: _118  and  _120
REMARK   36  A    between atoms: _120  and  _121
REMARK   37  A    between atoms: _120  and  _123
REMARK   38  A    between atoms: _123  and  _124
REMARK   39  A    between atoms: _127  and  _129
REMARK   40  A    between atoms: _129  and  _130
REMARK   41  A    between atoms: _129  and  _132
REMARK   42  A    between atoms: _132  and  _133
REMARK   43  A    between atoms: _136  and  _138
REMARK   44  A    between atoms: _138  and  _139
REMARK   45  A    between atoms: _138  and  _141
REMARK   46  A    between atoms: _141  and  _142
REMARK   47  A    between atoms: _145  and  _147
REMARK   48  A    between atoms: _147  and  _148
REMARK   49  A    between atoms: _147  and  _150
REMARK   50  A    between atoms: _150  and  _151
REMARK   51  A    between atoms: _156  and  _157
REMARK   52  A    between atoms: _159  and  _161
REMARK   53  A    between atoms: _161  and  _162
REMARK   54  A    between atoms: _161  and  _164
REMARK   55  A    between atoms: _164  and  _165
REMARK   56  A    between atoms: _170  and  _171
REMARK   57  A    between atoms: _173  and  _175
REMARK   58  A    between atoms: _175  and  _176
REMARK   59  A    between atoms: _175  and  _178
REMARK   60  A    between atoms: _178  and  _179
REMARK   61  A    between atoms: _181  and  _183
REMARK   62  A    between atoms: _183  and  _184
REMARK   63  A    between atoms: _183  and  _186
REMARK   64  A    between atoms: _186  and  _187
REMARK   65  A    between atoms: _187  and  _188
REMARK   66  A    between atoms: _188  and  _189
REMARK   67  A    between atoms: _198  and  _200
REMARK   68  A    between atoms: _200  and  _201
REMARK   69  A    between atoms: _200  and  _203
REMARK   70  A    between atoms: _203  and  _204
REMARK   71  A    between atoms: _204  and  _205
REMARK   72  A    between atoms: _210  and  _212
REMARK   73  A    between atoms: _212  and  _213
REMARK   74  A    between atoms: _212  and  _215
REMARK   75  A    between atoms: _215  and  _216
REMARK   76  A    between atoms: _219  and  _221
REMARK   77  A    between atoms: _221  and  _222
REMARK   78  A    between atoms: _221  and  _224
REMARK   79  A    between atoms: _224  and  _225
REMARK   80  A    between atoms: _230  and  _232
REMARK   81  A    between atoms: _232  and  _233
REMARK   82  A    between atoms: _232  and  _235
REMARK   83  A    between atoms: _235  and  _236
REMARK   84  A    between atoms: _241  and  _243
REMARK   85  A    between atoms: _243  and  _244
REMARK   86  A    between atoms: _243  and  _246
REMARK   87  A    between atoms: _246  and  _247
REMARK   88  A    between atoms: _252  and  _253
REMARK   89  A    between atoms: _255  and  _257
REMARK   90  A    between atoms: _257  and  _258
REMARK   91  A    between atoms: _257  and  _260
REMARK   92  A    between atoms: _260  and  _261
REMARK   93  A    between atoms: _266  and  _268
REMARK   94  A    between atoms: _268  and  _269
REMARK   95  A    between atoms: _268  and  _271
REMARK   96  A    between atoms: _271  and  _272
REMARK   97  A    between atoms: _274  and  _276
REMARK   98  A    between atoms: _276  and  _277
REMARK   99  A    between atoms: _276  and  _279
REMARK  100  A    between atoms: _279  and  _280
REMARK  101  A    between atoms: _283  and  _285
REMARK  102  A    between atoms: _285  and  _286
REMARK  103  A    between atoms: _285  and  _288
REMARK  104  A    between atoms: _288  and  _289
REMARK  105  A    between atoms: _292  and  _294
REMARK  106  A    between atoms: _294  and  _295
REMARK  107  A    between atoms: _294  and  _297
REMARK  108  A    between atoms: _297  and  _298
REMARK  109  A    between atoms: _304  and  _306
REMARK  110  A    between atoms: _306  and  _307
REMARK  111  A    between atoms: _306  and  _309
REMARK  112  A    between atoms: _309  and  _310
REMARK                            x       y       z     vdW  Elec       q    Type
REMARK                         _______ _______ _______ _____ _____    ______ ____
ROOT
ATOM      1  O   HOH     1      15.760 -62.718  28.161  0.00  0.00    +0.000 OA
ENDROOT
TORSDOF 0
REMARK  Name = ../refined-set-2016/4avi/4avi_pocket.pdb
REMARK  112 active torsions:
REMARK  status: ('A' for Active; 'I' for Inactive)
REMARK    1  A    between atoms: _1  and  _5
REMARK    2  A    between atoms: _5  and  _6
REMARK    3  A    between atoms: _5  and  _8
REMARK    4  A    between atoms: _8  and  _9
REMARK    5  A    between atoms: _15  and  _17
REMARK    6  A    between atoms: _17  and  _18
REMARK    7  A    between atoms: _22  and  _23
REMARK    8  A    between atoms: _28  and  _30
REMARK    9  A    between atoms: _30  and  _31
REMARK   10  A    between atoms: _30  and  _33
REMARK   11  A    between atoms: _33  and  _34
REMARK   12  A    between atoms: _37  and  _39
REMARK   13  A    between atoms: _39  and  _40
REMARK   14  A    between atoms: _42  and  _44
REMARK   15  A    between atoms: _44  and  _45
REMARK   16  A    between atoms: _47  and  _49
REMARK   17  A    between atoms: _60  and  _63
REMARK   18  A    between atoms: _63  and  _64
REMARK   19  A    between atoms: _71  and  _72
REMARK   20  A    between atoms: _78  and  _80
REMARK   21  A    between atoms: _80  and  _81
REMARK   22  A    between atoms: _80  and  _83
REMARK   23  A    between atoms: _83  and  _84
REMARK   24  A    between atoms: _89  and  _90
REMARK   25  A    between atoms: _93  and  _94
REMARK   26  A    between atoms: _99  and  _101
REMARK   27  A    between atoms: _101  and  _102
REMARK   28  A    between atoms: _101  and  _104
REMARK   29  A    between atoms: _104  and  _105
REMARK   30  A    between atoms: _105  and  _106
REMARK   31  A    between atoms: _109  and  _111
REMARK   32  A    between atoms: _111  and  _112
REMARK   33  A    between atoms: _111  and  _114
REMARK   34  A    between atoms: _114  and  _115
REMARK   35  A    between atoms: _118  and  _120
REMARK   36  A    between atoms: _120  and  _121
REMARK   37  A    between atoms: _120  and  _123
REMARK   38  A    between atoms: _123  and  _124
REMARK   39  A    between atoms: _127  and  _129
REMARK   40  A    between atoms: _129  and  _130
REMARK   41  A    between atoms: _129  and  _132
REMARK   42  A    between atoms: _132  and  _133
REMARK   43  A    between atoms: _136  and  _138
REMARK   44  A    between atoms: _138  and  _139
REMARK   45  A    between atoms: _138  and  _141
REMARK   46  A    between atoms: _141  and  _142
REMARK   47  A    between atoms: _145  and  _147
REMARK   48  A    between atoms: _147  and  _148
REMARK   49  A    between atoms: _147  and  _150
REMARK   50  A    between atoms: _150  and  _151
REMARK   51  A    between atoms: _156  and  _157
REMARK   52  A    between atoms: _159  and  _161
REMARK   53  A    between atoms: _161  and  _162
REMARK   54  A    between atoms: _161  and  _164
REMARK   55  A    between atoms: _164  and  _165
REMARK   56  A    between atoms: _170  and  _171
REMARK   57  A    between atoms: _173  and  _175
REMARK   58  A    between atoms: _175  and  _176
REMARK   59  A    between atoms: _175  and  _178
REMARK   60  A    between atoms: _178  and  _179
REMARK   61  A    between atoms: _181  and  _183
REMARK   62  A    between atoms: _183  and  _184
REMARK   63  A    between atoms: _183  and  _186
REMARK   64  A    between atoms: _186  and  _187
REMARK   65  A    between atoms: _187  and  _188
REMARK   66  A    between atoms: _188  and  _189
REMARK   67  A    between atoms: _198  and  _200
REMARK   68  A    between atoms: _200  and  _201
REMARK   69  A    between atoms: _200  and  _203
REMARK   70  A    between atoms: _203  and  _204
REMARK   71  A    between atoms: _204  and  _205
REMARK   72  A    between atoms: _210  and  _212
REMARK   73  A    between atoms: _212  and  _213
REMARK   74  A    between atoms: _212  and  _215
REMARK   75  A    between atoms: _215  and  _216
REMARK   76  A    between atoms: _219  and  _221
REMARK   77  A    between atoms: _221  and  _222
REMARK   78  A    between atoms: _221  and  _224
REMARK   79  A    between atoms: _224  and  _225
REMARK   80  A    between atoms: _230  and  _232
REMARK   81  A    between atoms: _232  and  _233
REMARK   82  A    between atoms: _232  and  _235
REMARK   83  A    between atoms: _235  and  _236
REMARK   84  A    between atoms: _241  and  _243
REMARK   85  A    between atoms: _243  and  _244
REMARK   86  A    between atoms: _243  and  _246
REMARK   87  A    between atoms: _246  and  _247
REMARK   88  A    between atoms: _252  and  _253
REMARK   89  A    between atoms: _255  and  _257
REMARK   90  A    between atoms: _257  and  _258
REMARK   91  A    between atoms: _257  and  _260
REMARK   92  A    between atoms: _260  and  _261
REMARK   93  A    between atoms: _266  and  _268
REMARK   94  A    between atoms: _268  and  _269
REMARK   95  A    between atoms: _268  and  _271
REMARK   96  A    between atoms: _271  and  _272
REMARK   97  A    between atoms: _274  and  _276
REMARK   98  A    between atoms: _276  and  _277
REMARK   99  A    between atoms: _276  and  _279
REMARK  100  A    between atoms: _279  and  _280
REMARK  101  A    between atoms: _283  and  _285
REMARK  102  A    between atoms: _285  and  _286
REMARK  103  A    between atoms: _285  and  _288
REMARK  104  A    between atoms: _288  and  _289
REMARK  105  A    between atoms: _292  and  _294
REMARK  106  A    between atoms: _294  and  _295
REMARK  107  A    between atoms: _294  and  _297
REMARK  108  A    between atoms: _297  and  _298
REMARK  109  A    between atoms: _304  and  _306
REMARK  110  A    between atoms: _306  and  _307
REMARK  111  A    between atoms: _306  and  _309
REMARK  112  A    between atoms: _309  and  _310
REMARK                            x       y       z     vdW  Elec       q    Type
REMARK                         _______ _______ _______ _____ _____    ______ ____
ROOT
ATOM      1  O   HOH     1      23.567 -63.506  21.822  0.00  0.00    +0.000 OA
ENDROOT
TORSDOF 0
REMARK  Name = ../refined-set-2016/4avi/4avi_pocket.pdb
REMARK  112 active torsions:
REMARK  status: ('A' for Active; 'I' for Inactive)
REMARK    1  A    between atoms: _1  and  _5
REMARK    2  A    between atoms: _5  and  _6
REMARK    3  A    between atoms: _5  and  _8
REMARK    4  A    between atoms: _8  and  _9
REMARK    5  A    between atoms: _15  and  _17
REMARK    6  A    between atoms: _17  and  _18
REMARK    7  A    between atoms: _22  and  _23
REMARK    8  A    between atoms: _28  and  _30
REMARK    9  A    between atoms: _30  and  _31
REMARK   10  A    between atoms: _30  and  _33
REMARK   11  A    between atoms: _33  and  _34
REMARK   12  A    between atoms: _37  and  _39
REMARK   13  A    between atoms: _39  and  _40
REMARK   14  A    between atoms: _42  and  _44
REMARK   15  A    between atoms: _44  and  _45
REMARK   16  A    between atoms: _47  and  _49
REMARK   17  A    between atoms: _60  and  _63
REMARK   18  A    between atoms: _63  and  _64
REMARK   19  A    between atoms: _71  and  _72
REMARK   20  A    between atoms: _78  and  _80
REMARK   21  A    between atoms: _80  and  _81
REMARK   22  A    between atoms: _80  and  _83
REMARK   23  A    between atoms: _83  and  _84
REMARK   24  A    between atoms: _89  and  _90
REMARK   25  A    between atoms: _93  and  _94
REMARK   26  A    between atoms: _99  and  _101
REMARK   27  A    between atoms: _101  and  _102
REMARK   28  A    between atoms: _101  and  _104
REMARK   29  A    between atoms: _104  and  _105
REMARK   30  A    between atoms: _105  and  _106
REMARK   31  A    between atoms: _109  and  _111
REMARK   32  A    between atoms: _111  and  _112
REMARK   33  A    between atoms: _111  and  _114
REMARK   34  A    between atoms: _114  and  _115
REMARK   35  A    between atoms: _118  and  _120
REMARK   36  A    between atoms: _120  and  _121
REMARK   37  A    between atoms: _120  and  _123
REMARK   38  A    between atoms: _123  and  _124
REMARK   39  A    between atoms: _127  and  _129
REMARK   40  A    between atoms: _129  and  _130
REMARK   41  A    between atoms: _129  and  _132
REMARK   42  A    between atoms: _132  and  _133
REMARK   43  A    between atoms: _136  and  _138
REMARK   44  A    between atoms: _138  and  _139
REMARK   45  A    between atoms: _138  and  _141
REMARK   46  A    between atoms: _141  and  _142
REMARK   47  A    between atoms: _145  and  _147
REMARK   48  A    between atoms: _147  and  _148
REMARK   49  A    between atoms: _147  and  _150
REMARK   50  A    between atoms: _150  and  _151
REMARK   51  A    between atoms: _156  and  _157
REMARK   52  A    between atoms: _159  and  _161
REMARK   53  A    between atoms: _161  and  _162
REMARK   54  A    between atoms: _161  and  _164
REMARK   55  A    between atoms: _164  and  _165
REMARK   56  A    between atoms: _170  and  _171
REMARK   57  A    between atoms: _173  and  _175
REMARK   58  A    between atoms: _175  and  _176
REMARK   59  A    between atoms: _175  and  _178
REMARK   60  A    between atoms: _178  and  _179
REMARK   61  A    between atoms: _181  and  _183
REMARK   62  A    between atoms: _183  and  _184
REMARK   63  A    between atoms: _183  and  _186
REMARK   64  A    between atoms: _186  and  _187
REMARK   65  A    between atoms: _187  and  _188
REMARK   66  A    between atoms: _188  and  _189
REMARK   67  A    between atoms: _198  and  _200
REMARK   68  A    between atoms: _200  and  _201
REMARK   69  A    between atoms: _200  and  _203
REMARK   70  A    between atoms: _203  and  _204
REMARK   71  A    between atoms: _204  and  _205
REMARK   72  A    between atoms: _210  and  _212
REMARK   73  A    between atoms: _212  and  _213
REMARK   74  A    between atoms: _212  and  _215
REMARK   75  A    between atoms: _215  and  _216
REMARK   76  A    between atoms: _219  and  _221
REMARK   77  A    between atoms: _221  and  _222
REMARK   78  A    between atoms: _221  and  _224
REMARK   79  A    between atoms: _224  and  _225
REMARK   80  A    between atoms: _230  and  _232
REMARK   81  A    between atoms: _232  and  _233
REMARK   82  A    between atoms: _232  and  _235
REMARK   83  A    between atoms: _235  and  _236
REMARK   84  A    between atoms: _241  and  _243
REMARK   85  A    between atoms: _243  and  _244
REMARK   86  A    between atoms: _243  and  _246
REMARK   87  A    between atoms: _246  and  _247
REMARK   88  A    between atoms: _252  and  _253
REMARK   89  A    between atoms: _255  and  _257
REMARK   90  A    between atoms: _257  and  _258
REMARK   91  A    between atoms: _257  and  _260
REMARK   92  A    between atoms: _260  and  _261
REMARK   93  A    between atoms: _266  and  _268
REMARK   94  A    between atoms: _268  and  _269
REMARK   95  A    between atoms: _268  and  _271
REMARK   96  A    between atoms: _271  and  _272
REMARK   97  A    between atoms: _274  and  _276
REMARK   98  A    between atoms: _276  and  _277
REMARK   99  A    between atoms: _276  and  _279
REMARK  100  A    between atoms: _279  and  _280
REMARK  101  A    between atoms: _283  and  _285
REMARK  102  A    between atoms: _285  and  _286
REMARK  103  A    between atoms: _285  and  _288
REMARK  104  A    between atoms: _288  and  _289
REMARK  105  A    between atoms: _292  and  _294
REMARK  106  A    between atoms: _294  and  _295
REMARK  107  A    between atoms: _294  and  _297
REMARK  108  A    between atoms: _297  and  _298
REMARK  109  A    between atoms: _304  and  _306
REMARK  110  A    between atoms: _306  and  _307
REMARK  111  A    between atoms: _306  and  _309
REMARK  112  A    between atoms: _309  and  _310
REMARK                            x       y       z     vdW  Elec       q    Type
REMARK                         _______ _______ _______ _____ _____    ______ ____
ROOT
ATOM      1  O   HOH     1      19.610 -64.810  13.956  0.00  0.00    +0.000 OA
ENDROOT
TORSDOF 0
REMARK  Name = ../refined-set-2016/4avi/4avi_pocket.pdb
REMARK  112 active torsions:
REMARK  status: ('A' for Active; 'I' for Inactive)
REMARK    1  A    between atoms: _1  and  _5
REMARK    2  A    between atoms: _5  and  _6
REMARK    3  A    between atoms: _5  and  _8
REMARK    4  A    between atoms: _8  and  _9
REMARK    5  A    between atoms: _15  and  _17
REMARK    6  A    between atoms: _17  and  _18
REMARK    7  A    between atoms: _22  and  _23
REMARK    8  A    between atoms: _28  and  _30
REMARK    9  A    between atoms: _30  and  _31
REMARK   10  A    between atoms: _30  and  _33
REMARK   11  A    between atoms: _33  and  _34
REMARK   12  A    between atoms: _37  and  _39
REMARK   13  A    between atoms: _39  and  _40
REMARK   14  A    between atoms: _42  and  _44
REMARK   15  A    between atoms: _44  and  _45
REMARK   16  A    between atoms: _47  and  _49
REMARK   17  A    between atoms: _60  and  _63
REMARK   18  A    between atoms: _63  and  _64
REMARK   19  A    between atoms: _71  and  _72
REMARK   20  A    between atoms: _78  and  _80
REMARK   21  A    between atoms: _80  and  _81
REMARK   22  A    between atoms: _80  and  _83
REMARK   23  A    between atoms: _83  and  _84
REMARK   24  A    between atoms: _89  and  _90
REMARK   25  A    between atoms: _93  and  _94
REMARK   26  A    between atoms: _99  and  _101
REMARK   27  A    between atoms: _101  and  _102
REMARK   28  A    between atoms: _101  and  _104
REMARK   29  A    between atoms: _104  and  _105
REMARK   30  A    between atoms: _105  and  _106
REMARK   31  A    between atoms: _109  and  _111
REMARK   32  A    between atoms: _111  and  _112
REMARK   33  A    between atoms: _111  and  _114
REMARK   34  A    between atoms: _114  and  _115
REMARK   35  A    between atoms: _118  and  _120
REMARK   36  A    between atoms: _120  and  _121
REMARK   37  A    between atoms: _120  and  _123
REMARK   38  A    between atoms: _123  and  _124
REMARK   39  A    between atoms: _127  and  _129
REMARK   40  A    between atoms: _129  and  _130
REMARK   41  A    between atoms: _129  and  _132
REMARK   42  A    between atoms: _132  and  _133
REMARK   43  A    between atoms: _136  and  _138
REMARK   44  A    between atoms: _138  and  _139
REMARK   45  A    between atoms: _138  and  _141
REMARK   46  A    between atoms: _141  and  _142
REMARK   47  A    between atoms: _145  and  _147
REMARK   48  A    between atoms: _147  and  _148
REMARK   49  A    between atoms: _147  and  _150
REMARK   50  A    between atoms: _150  and  _151
REMARK   51  A    between atoms: _156  and  _157
REMARK   52  A    between atoms: _159  and  _161
REMARK   53  A    between atoms: _161  and  _162
REMARK   54  A    between atoms: _161  and  _164
REMARK   55  A    between atoms: _164  and  _165
REMARK   56  A    between atoms: _170  and  _171
REMARK   57  A    between atoms: _173  and  _175
REMARK   58  A    between atoms: _175  and  _176
REMARK   59  A    between atoms: _175  and  _178
REMARK   60  A    between atoms: _178  and  _179
REMARK   61  A    between atoms: _181  and  _183
REMARK   62  A    between atoms: _183  and  _184
REMARK   63  A    between atoms: _183  and  _186
REMARK   64  A    between atoms: _186  and  _187
REMARK   65  A    between atoms: _187  and  _188
REMARK   66  A    between atoms: _188  and  _189
REMARK   67  A    between atoms: _198  and  _200
REMARK   68  A    between atoms: _200  and  _201
REMARK   69  A    between atoms: _200  and  _203
REMARK   70  A    between atoms: _203  and  _204
REMARK   71  A    between atoms: _204  and  _205
REMARK   72  A    between atoms: _210  and  _212
REMARK   73  A    between atoms: _212  and  _213
REMARK   74  A    between atoms: _212  and  _215
REMARK   75  A    between atoms: _215  and  _216
REMARK   76  A    between atoms: _219  and  _221
REMARK   77  A    between atoms: _221  and  _222
REMARK   78  A    between atoms: _221  and  _224
REMARK   79  A    between atoms: _224  and  _225
REMARK   80  A    between atoms: _230  and  _232
REMARK   81  A    between atoms: _232  and  _233
REMARK   82  A    between atoms: _232  and  _235
REMARK   83  A    between atoms: _235  and  _236
REMARK   84  A    between atoms: _241  and  _243
REMARK   85  A    between atoms: _243  and  _244
REMARK   86  A    between atoms: _243  and  _246
REMARK   87  A    between atoms: _246  and  _247
REMARK   88  A    between atoms: _252  and  _253
REMARK   89  A    between atoms: _255  and  _257
REMARK   90  A    between atoms: _257  and  _258
REMARK   91  A    between atoms: _257  and  _260
REMARK   92  A    between atoms: _260  and  _261
REMARK   93  A    between atoms: _266  and  _268
REMARK   94  A    between atoms: _268  and  _269
REMARK   95  A    between atoms: _268  and  _271
REMARK   96  A    between atoms: _271  and  _272
REMARK   97  A    between atoms: _274  and  _276
REMARK   98  A    between atoms: _276  and  _277
REMARK   99  A    between atoms: _276  and  _279
REMARK  100  A    between atoms: _279  and  _280
REMARK  101  A    between atoms: _283  and  _285
REMARK  102  A    between atoms: _285  and  _286
REMARK  103  A    between atoms: _285  and  _288
REMARK  104  A    between atoms: _288  and  _289
REMARK  105  A    between atoms: _292  and  _294
REMARK  106  A    between atoms: _294  and  _295
REMARK  107  A    between atoms: _294  and  _297
REMARK  108  A    between atoms: _297  and  _298
REMARK  109  A    between atoms: _304  and  _306
REMARK  110  A    between atoms: _306  and  _307
REMARK  111  A    between atoms: _306  and  _309
REMARK  112  A    between atoms: _309  and  _310
REMARK                            x       y       z     vdW  Elec       q    Type
REMARK                         _______ _______ _______ _____ _____    ______ ____
ROOT
ATOM      1  O   HOH     1       7.849 -65.545  24.558  0.00  0.00    +0.000 OA
ENDROOT
TORSDOF 0
REMARK  Name = ../refined-set-2016/4avi/4avi_pocket.pdb
REMARK  112 active torsions:
REMARK  status: ('A' for Active; 'I' for Inactive)
REMARK    1  A    between atoms: _1  and  _5
REMARK    2  A    between atoms: _5  and  _6
REMARK    3  A    between atoms: _5  and  _8
REMARK    4  A    between atoms: _8  and  _9
REMARK    5  A    between atoms: _15  and  _17
REMARK    6  A    between atoms: _17  and  _18
REMARK    7  A    between atoms: _22  and  _23
REMARK    8  A    between atoms: _28  and  _30
REMARK    9  A    between atoms: _30  and  _31
REMARK   10  A    between atoms: _30  and  _33
REMARK   11  A    between atoms: _33  and  _34
REMARK   12  A    between atoms: _37  and  _39
REMARK   13  A    between atoms: _39  and  _40
REMARK   14  A    between atoms: _42  and  _44
REMARK   15  A    between atoms: _44  and  _45
REMARK   16  A    between atoms: _47  and  _49
REMARK   17  A    between atoms: _60  and  _63
REMARK   18  A    between atoms: _63  and  _64
REMARK   19  A    between atoms: _71  and  _72
REMARK   20  A    between atoms: _78  and  _80
REMARK   21  A    between atoms: _80  and  _81
REMARK   22  A    between atoms: _80  and  _83
REMARK   23  A    between atoms: _83  and  _84
REMARK   24  A    between atoms: _89  and  _90
REMARK   25  A    between atoms: _93  and  _94
REMARK   26  A    between atoms: _99  and  _101
REMARK   27  A    between atoms: _101  and  _102
REMARK   28  A    between atoms: _101  and  _104
REMARK   29  A    between atoms: _104  and  _105
REMARK   30  A    between atoms: _105  and  _106
REMARK   31  A    between atoms: _109  and  _111
REMARK   32  A    between atoms: _111  and  _112
REMARK   33  A    between atoms: _111  and  _114
REMARK   34  A    between atoms: _114  and  _115
REMARK   35  A    between atoms: _118  and  _120
REMARK   36  A    between atoms: _120  and  _121
REMARK   37  A    between atoms: _120  and  _123
REMARK   38  A    between atoms: _123  and  _124
REMARK   39  A    between atoms: _127  and  _129
REMARK   40  A    between atoms: _129  and  _130
REMARK   41  A    between atoms: _129  and  _132
REMARK   42  A    between atoms: _132  and  _133
REMARK   43  A    between atoms: _136  and  _138
REMARK   44  A    between atoms: _138  and  _139
REMARK   45  A    between atoms: _138  and  _141
REMARK   46  A    between atoms: _141  and  _142
REMARK   47  A    between atoms: _145  and  _147
REMARK   48  A    between atoms: _147  and  _148
REMARK   49  A    between atoms: _147  and  _150
REMARK   50  A    between atoms: _150  and  _151
REMARK   51  A    between atoms: _156  and  _157
REMARK   52  A    between atoms: _159  and  _161
REMARK   53  A    between atoms: _161  and  _162
REMARK   54  A    between atoms: _161  and  _164
REMARK   55  A    between atoms: _164  and  _165
REMARK   56  A    between atoms: _170  and  _171
REMARK   57  A    between atoms: _173  and  _175
REMARK   58  A    between atoms: _175  and  _176
REMARK   59  A    between atoms: _175  and  _178
REMARK   60  A    between atoms: _178  and  _179
REMARK   61  A    between atoms: _181  and  _183
REMARK   62  A    between atoms: _183  and  _184
REMARK   63  A    between atoms: _183  and  _186
REMARK   64  A    between atoms: _186  and  _187
REMARK   65  A    between atoms: _187  and  _188
REMARK   66  A    between atoms: _188  and  _189
REMARK   67  A    between atoms: _198  and  _200
REMARK   68  A    between atoms: _200  and  _201
REMARK   69  A    between atoms: _200  and  _203
REMARK   70  A    between atoms: _203  and  _204
REMARK   71  A    between atoms: _204  and  _205
REMARK   72  A    between atoms: _210  and  _212
REMARK   73  A    between atoms: _212  and  _213
REMARK   74  A    between atoms: _212  and  _215
REMARK   75  A    between atoms: _215  and  _216
REMARK   76  A    between atoms: _219  and  _221
REMARK   77  A    between atoms: _221  and  _222
REMARK   78  A    between atoms: _221  and  _224
REMARK   79  A    between atoms: _224  and  _225
REMARK   80  A    between atoms: _230  and  _232
REMARK   81  A    between atoms: _232  and  _233
REMARK   82  A    between atoms: _232  and  _235
REMARK   83  A    between atoms: _235  and  _236
REMARK   84  A    between atoms: _241  and  _243
REMARK   85  A    between atoms: _243  and  _244
REMARK   86  A    between atoms: _243  and  _246
REMARK   87  A    between atoms: _246  and  _247
REMARK   88  A    between atoms: _252  and  _253
REMARK   89  A    between atoms: _255  and  _257
REMARK   90  A    between atoms: _257  and  _258
REMARK   91  A    between atoms: _257  and  _260
REMARK   92  A    between atoms: _260  and  _261
REMARK   93  A    between atoms: _266  and  _268
REMARK   94  A    between atoms: _268  and  _269
REMARK   95  A    between atoms: _268  and  _271
REMARK   96  A    between atoms: _271  and  _272
REMARK   97  A    between atoms: _274  and  _276
REMARK   98  A    between atoms: _276  and  _277
REMARK   99  A    between atoms: _276  and  _279
REMARK  100  A    between atoms: _279  and  _280
REMARK  101  A    between atoms: _283  and  _285
REMARK  102  A    between atoms: _285  and  _286
REMARK  103  A    between atoms: _285  and  _288
REMARK  104  A    between atoms: _288  and  _289
REMARK  105  A    between atoms: _292  and  _294
REMARK  106  A    between atoms: _294  and  _295
REMARK  107  A    between atoms: _294  and  _297
REMARK  108  A    between atoms: _297  and  _298
REMARK  109  A    between atoms: _304  and  _306
REMARK  110  A    between atoms: _306  and  _307
REMARK  111  A    between atoms: _306  and  _309
REMARK  112  A    between atoms: _309  and  _310
REMARK                            x       y       z     vdW  Elec       q    Type
REMARK                         _______ _______ _______ _____ _____    ______ ____
ROOT
ATOM      1  O   HOH     1      11.685 -66.281  25.280  0.00  0.00    +0.000 OA
ENDROOT
TORSDOF 0
REMARK  Name = ../refined-set-2016/4avi/4avi_pocket.pdb
REMARK  112 active torsions:
REMARK  status: ('A' for Active; 'I' for Inactive)
REMARK    1  A    between atoms: _1  and  _5
REMARK    2  A    between atoms: _5  and  _6
REMARK    3  A    between atoms: _5  and  _8
REMARK    4  A    between atoms: _8  and  _9
REMARK    5  A    between atoms: _15  and  _17
REMARK    6  A    between atoms: _17  and  _18
REMARK    7  A    between atoms: _22  and  _23
REMARK    8  A    between atoms: _28  and  _30
REMARK    9  A    between atoms: _30  and  _31
REMARK   10  A    between atoms: _30  and  _33
REMARK   11  A    between atoms: _33  and  _34
REMARK   12  A    between atoms: _37  and  _39
REMARK   13  A    between atoms: _39  and  _40
REMARK   14  A    between atoms: _42  and  _44
REMARK   15  A    between atoms: _44  and  _45
REMARK   16  A    between atoms: _47  and  _49
REMARK   17  A    between atoms: _60  and  _63
REMARK   18  A    between atoms: _63  and  _64
REMARK   19  A    between atoms: _71  and  _72
REMARK   20  A    between atoms: _78  and  _80
REMARK   21  A    between atoms: _80  and  _81
REMARK   22  A    between atoms: _80  and  _83
REMARK   23  A    between atoms: _83  and  _84
REMARK   24  A    between atoms: _89  and  _90
REMARK   25  A    between atoms: _93  and  _94
REMARK   26  A    between atoms: _99  and  _101
REMARK   27  A    between atoms: _101  and  _102
REMARK   28  A    between atoms: _101  and  _104
REMARK   29  A    between atoms: _104  and  _105
REMARK   30  A    between atoms: _105  and  _106
REMARK   31  A    between atoms: _109  and  _111
REMARK   32  A    between atoms: _111  and  _112
REMARK   33  A    between atoms: _111  and  _114
REMARK   34  A    between atoms: _114  and  _115
REMARK   35  A    between atoms: _118  and  _120
REMARK   36  A    between atoms: _120  and  _121
REMARK   37  A    between atoms: _120  and  _123
REMARK   38  A    between atoms: _123  and  _124
REMARK   39  A    between atoms: _127  and  _129
REMARK   40  A    between atoms: _129  and  _130
REMARK   41  A    between atoms: _129  and  _132
REMARK   42  A    between atoms: _132  and  _133
REMARK   43  A    between atoms: _136  and  _138
REMARK   44  A    between atoms: _138  and  _139
REMARK   45  A    between atoms: _138  and  _141
REMARK   46  A    between atoms: _141  and  _142
REMARK   47  A    between atoms: _145  and  _147
REMARK   48  A    between atoms: _147  and  _148
REMARK   49  A    between atoms: _147  and  _150
REMARK   50  A    between atoms: _150  and  _151
REMARK   51  A    between atoms: _156  and  _157
REMARK   52  A    between atoms: _159  and  _161
REMARK   53  A    between atoms: _161  and  _162
REMARK   54  A    between atoms: _161  and  _164
REMARK   55  A    between atoms: _164  and  _165
REMARK   56  A    between atoms: _170  and  _171
REMARK   57  A    between atoms: _173  and  _175
REMARK   58  A    between atoms: _175  and  _176
REMARK   59  A    between atoms: _175  and  _178
REMARK   60  A    between atoms: _178  and  _179
REMARK   61  A    between atoms: _181  and  _183
REMARK   62  A    between atoms: _183  and  _184
REMARK   63  A    between atoms: _183  and  _186
REMARK   64  A    between atoms: _186  and  _187
REMARK   65  A    between atoms: _187  and  _188
REMARK   66  A    between atoms: _188  and  _189
REMARK   67  A    between atoms: _198  and  _200
REMARK   68  A    between atoms: _200  and  _201
REMARK   69  A    between atoms: _200  and  _203
REMARK   70  A    between atoms: _203  and  _204
REMARK   71  A    between atoms: _204  and  _205
REMARK   72  A    between atoms: _210  and  _212
REMARK   73  A    between atoms: _212  and  _213
REMARK   74  A    between atoms: _212  and  _215
REMARK   75  A    between atoms: _215  and  _216
REMARK   76  A    between atoms: _219  and  _221
REMARK   77  A    between atoms: _221  and  _222
REMARK   78  A    between atoms: _221  and  _224
REMARK   79  A    between atoms: _224  and  _225
REMARK   80  A    between atoms: _230  and  _232
REMARK   81  A    between atoms: _232  and  _233
REMARK   82  A    between atoms: _232  and  _235
REMARK   83  A    between atoms: _235  and  _236
REMARK   84  A    between atoms: _241  and  _243
REMARK   85  A    between atoms: _243  and  _244
REMARK   86  A    between atoms: _243  and  _246
REMARK   87  A    between atoms: _246  and  _247
REMARK   88  A    between atoms: _252  and  _253
REMARK   89  A    between atoms: _255  and  _257
REMARK   90  A    between atoms: _257  and  _258
REMARK   91  A    between atoms: _257  and  _260
REMARK   92  A    between atoms: _260  and  _261
REMARK   93  A    between atoms: _266  and  _268
REMARK   94  A    between atoms: _268  and  _269
REMARK   95  A    between atoms: _268  and  _271
REMARK   96  A    between atoms: _271  and  _272
REMARK   97  A    between atoms: _274  and  _276
REMARK   98  A    between atoms: _276  and  _277
REMARK   99  A    between atoms: _276  and  _279
REMARK  100  A    between atoms: _279  and  _280
REMARK  101  A    between atoms: _283  and  _285
REMARK  102  A    between atoms: _285  and  _286
REMARK  103  A    between atoms: _285  and  _288
REMARK  104  A    between atoms: _288  and  _289
REMARK  105  A    between atoms: _292  and  _294
REMARK  106  A    between atoms: _294  and  _295
REMARK  107  A    between atoms: _294  and  _297
REMARK  108  A    between atoms: _297  and  _298
REMARK  109  A    between atoms: _304  and  _306
REMARK  110  A    between atoms: _306  and  _307
REMARK  111  A    between atoms: _306  and  _309
REMARK  112  A    between atoms: _309  and  _310
REMARK                            x       y       z     vdW  Elec       q    Type
REMARK                         _______ _______ _______ _____ _____    ______ ____
ROOT
ATOM      1  O   HOH     1      10.608 -68.718  26.643  0.00  0.00    +0.000 OA
ENDROOT
TORSDOF 0
REMARK  Name = ../refined-set-2016/4avi/4avi_pocket.pdb
REMARK  112 active torsions:
REMARK  status: ('A' for Active; 'I' for Inactive)
REMARK    1  A    between atoms: _1  and  _5
REMARK    2  A    between atoms: _5  and  _6
REMARK    3  A    between atoms: _5  and  _8
REMARK    4  A    between atoms: _8  and  _9
REMARK    5  A    between atoms: _15  and  _17
REMARK    6  A    between atoms: _17  and  _18
REMARK    7  A    between atoms: _22  and  _23
REMARK    8  A    between atoms: _28  and  _30
REMARK    9  A    between atoms: _30  and  _31
REMARK   10  A    between atoms: _30  and  _33
REMARK   11  A    between atoms: _33  and  _34
REMARK   12  A    between atoms: _37  and  _39
REMARK   13  A    between atoms: _39  and  _40
REMARK   14  A    between atoms: _42  and  _44
REMARK   15  A    between atoms: _44  and  _45
REMARK   16  A    between atoms: _47  and  _49
REMARK   17  A    between atoms: _60  and  _63
REMARK   18  A    between atoms: _63  and  _64
REMARK   19  A    between atoms: _71  and  _72
REMARK   20  A    between atoms: _78  and  _80
REMARK   21  A    between atoms: _80  and  _81
REMARK   22  A    between atoms: _80  and  _83
REMARK   23  A    between atoms: _83  and  _84
REMARK   24  A    between atoms: _89  and  _90
REMARK   25  A    between atoms: _93  and  _94
REMARK   26  A    between atoms: _99  and  _101
REMARK   27  A    between atoms: _101  and  _102
REMARK   28  A    between atoms: _101  and  _104
REMARK   29  A    between atoms: _104  and  _105
REMARK   30  A    between atoms: _105  and  _106
REMARK   31  A    between atoms: _109  and  _111
REMARK   32  A    between atoms: _111  and  _112
REMARK   33  A    between atoms: _111  and  _114
REMARK   34  A    between atoms: _114  and  _115
REMARK   35  A    between atoms: _118  and  _120
REMARK   36  A    between atoms: _120  and  _121
REMARK   37  A    between atoms: _120  and  _123
REMARK   38  A    between atoms: _123  and  _124
REMARK   39  A    between atoms: _127  and  _129
REMARK   40  A    between atoms: _129  and  _130
REMARK   41  A    between atoms: _129  and  _132
REMARK   42  A    between atoms: _132  and  _133
REMARK   43  A    between atoms: _136  and  _138
REMARK   44  A    between atoms: _138  and  _139
REMARK   45  A    between atoms: _138  and  _141
REMARK   46  A    between atoms: _141  and  _142
REMARK   47  A    between atoms: _145  and  _147
REMARK   48  A    between atoms: _147  and  _148
REMARK   49  A    between atoms: _147  and  _150
REMARK   50  A    between atoms: _150  and  _151
REMARK   51  A    between atoms: _156  and  _157
REMARK   52  A    between atoms: _159  and  _161
REMARK   53  A    between atoms: _161  and  _162
REMARK   54  A    between atoms: _161  and  _164
REMARK   55  A    between atoms: _164  and  _165
REMARK   56  A    between atoms: _170  and  _171
REMARK   57  A    between atoms: _173  and  _175
REMARK   58  A    between atoms: _175  and  _176
REMARK   59  A    between atoms: _175  and  _178
REMARK   60  A    between atoms: _178  and  _179
REMARK   61  A    between atoms: _181  and  _183
REMARK   62  A    between atoms: _183  and  _184
REMARK   63  A    between atoms: _183  and  _186
REMARK   64  A    between atoms: _186  and  _187
REMARK   65  A    between atoms: _187  and  _188
REMARK   66  A    between atoms: _188  and  _189
REMARK   67  A    between atoms: _198  and  _200
REMARK   68  A    between atoms: _200  and  _201
REMARK   69  A    between atoms: _200  and  _203
REMARK   70  A    between atoms: _203  and  _204
REMARK   71  A    between atoms: _204  and  _205
REMARK   72  A    between atoms: _210  and  _212
REMARK   73  A    between atoms: _212  and  _213
REMARK   74  A    between atoms: _212  and  _215
REMARK   75  A    between atoms: _215  and  _216
REMARK   76  A    between atoms: _219  and  _221
REMARK   77  A    between atoms: _221  and  _222
REMARK   78  A    between atoms: _221  and  _224
REMARK   79  A    between atoms: _224  and  _225
REMARK   80  A    between atoms: _230  and  _232
REMARK   81  A    between atoms: _232  and  _233
REMARK   82  A    between atoms: _232  and  _235
REMARK   83  A    between atoms: _235  and  _236
REMARK   84  A    between atoms: _241  and  _243
REMARK   85  A    between atoms: _243  and  _244
REMARK   86  A    between atoms: _243  and  _246
REMARK   87  A    between atoms: _246  and  _247
REMARK   88  A    between atoms: _252  and  _253
REMARK   89  A    between atoms: _255  and  _257
REMARK   90  A    between atoms: _257  and  _258
REMARK   91  A    between atoms: _257  and  _260
REMARK   92  A    between atoms: _260  and  _261
REMARK   93  A    between atoms: _266  and  _268
REMARK   94  A    between atoms: _268  and  _269
REMARK   95  A    between atoms: _268  and  _271
REMARK   96  A    between atoms: _271  and  _272
REMARK   97  A    between atoms: _274  and  _276
REMARK   98  A    between atoms: _276  and  _277
REMARK   99  A    between atoms: _276  and  _279
REMARK  100  A    between atoms: _279  and  _280
REMARK  101  A    between atoms: _283  and  _285
REMARK  102  A    between atoms: _285  and  _286
REMARK  103  A    between atoms: _285  and  _288
REMARK  104  A    between atoms: _288  and  _289
REMARK  105  A    between atoms: _292  and  _294
REMARK  106  A    between atoms: _294  and  _295
REMARK  107  A    between atoms: _294  and  _297
REMARK  108  A    between atoms: _297  and  _298
REMARK  109  A    between atoms: _304  and  _306
REMARK  110  A    between atoms: _306  and  _307
REMARK  111  A    between atoms: _306  and  _309
REMARK  112  A    between atoms: _309  and  _310
REMARK                            x       y       z     vdW  Elec       q    Type
REMARK                         _______ _______ _______ _____ _____    ______ ____
ROOT
ATOM      1  O   HOH     1      10.405 -63.555  13.285  0.00  0.00    +0.000 OA
ENDROOT
TORSDOF 0
REMARK  Name = ../refined-set-2016/4avi/4avi_pocket.pdb
REMARK  112 active torsions:
REMARK  status: ('A' for Active; 'I' for Inactive)
REMARK    1  A    between atoms: _1  and  _5
REMARK    2  A    between atoms: _5  and  _6
REMARK    3  A    between atoms: _5  and  _8
REMARK    4  A    between atoms: _8  and  _9
REMARK    5  A    between atoms: _15  and  _17
REMARK    6  A    between atoms: _17  and  _18
REMARK    7  A    between atoms: _22  and  _23
REMARK    8  A    between atoms: _28  and  _30
REMARK    9  A    between atoms: _30  and  _31
REMARK   10  A    between atoms: _30  and  _33
REMARK   11  A    between atoms: _33  and  _34
REMARK   12  A    between atoms: _37  and  _39
REMARK   13  A    between atoms: _39  and  _40
REMARK   14  A    between atoms: _42  and  _44
REMARK   15  A    between atoms: _44  and  _45
REMARK   16  A    between atoms: _47  and  _49
REMARK   17  A    between atoms: _60  and  _63
REMARK   18  A    between atoms: _63  and  _64
REMARK   19  A    between atoms: _71  and  _72
REMARK   20  A    between atoms: _78  and  _80
REMARK   21  A    between atoms: _80  and  _81
REMARK   22  A    between atoms: _80  and  _83
REMARK   23  A    between atoms: _83  and  _84
REMARK   24  A    between atoms: _89  and  _90
REMARK   25  A    between atoms: _93  and  _94
REMARK   26  A    between atoms: _99  and  _101
REMARK   27  A    between atoms: _101  and  _102
REMARK   28  A    between atoms: _101  and  _104
REMARK   29  A    between atoms: _104  and  _105
REMARK   30  A    between atoms: _105  and  _106
REMARK   31  A    between atoms: _109  and  _111
REMARK   32  A    between atoms: _111  and  _112
REMARK   33  A    between atoms: _111  and  _114
REMARK   34  A    between atoms: _114  and  _115
REMARK   35  A    between atoms: _118  and  _120
REMARK   36  A    between atoms: _120  and  _121
REMARK   37  A    between atoms: _120  and  _123
REMARK   38  A    between atoms: _123  and  _124
REMARK   39  A    between atoms: _127  and  _129
REMARK   40  A    between atoms: _129  and  _130
REMARK   41  A    between atoms: _129  and  _132
REMARK   42  A    between atoms: _132  and  _133
REMARK   43  A    between atoms: _136  and  _138
REMARK   44  A    between atoms: _138  and  _139
REMARK   45  A    between atoms: _138  and  _141
REMARK   46  A    between atoms: _141  and  _142
REMARK   47  A    between atoms: _145  and  _147
REMARK   48  A    between atoms: _147  and  _148
REMARK   49  A    between atoms: _147  and  _150
REMARK   50  A    between atoms: _150  and  _151
REMARK   51  A    between atoms: _156  and  _157
REMARK   52  A    between atoms: _159  and  _161
REMARK   53  A    between atoms: _161  and  _162
REMARK   54  A    between atoms: _161  and  _164
REMARK   55  A    between atoms: _164  and  _165
REMARK   56  A    between atoms: _170  and  _171
REMARK   57  A    between atoms: _173  and  _175
REMARK   58  A    between atoms: _175  and  _176
REMARK   59  A    between atoms: _175  and  _178
REMARK   60  A    between atoms: _178  and  _179
REMARK   61  A    between atoms: _181  and  _183
REMARK   62  A    between atoms: _183  and  _184
REMARK   63  A    between atoms: _183  and  _186
REMARK   64  A    between atoms: _186  and  _187
REMARK   65  A    between atoms: _187  and  _188
REMARK   66  A    between atoms: _188  and  _189
REMARK   67  A    between atoms: _198  and  _200
REMARK   68  A    between atoms: _200  and  _201
REMARK   69  A    between atoms: _200  and  _203
REMARK   70  A    between atoms: _203  and  _204
REMARK   71  A    between atoms: _204  and  _205
REMARK   72  A    between atoms: _210  and  _212
REMARK   73  A    between atoms: _212  and  _213
REMARK   74  A    between atoms: _212  and  _215
REMARK   75  A    between atoms: _215  and  _216
REMARK   76  A    between atoms: _219  and  _221
REMARK   77  A    between atoms: _221  and  _222
REMARK   78  A    between atoms: _221  and  _224
REMARK   79  A    between atoms: _224  and  _225
REMARK   80  A    between atoms: _230  and  _232
REMARK   81  A    between atoms: _232  and  _233
REMARK   82  A    between atoms: _232  and  _235
REMARK   83  A    between atoms: _235  and  _236
REMARK   84  A    between atoms: _241  and  _243
REMARK   85  A    between atoms: _243  and  _244
REMARK   86  A    between atoms: _243  and  _246
REMARK   87  A    between atoms: _246  and  _247
REMARK   88  A    between atoms: _252  and  _253
REMARK   89  A    between atoms: _255  and  _257
REMARK   90  A    between atoms: _257  and  _258
REMARK   91  A    between atoms: _257  and  _260
REMARK   92  A    between atoms: _260  and  _261
REMARK   93  A    between atoms: _266  and  _268
REMARK   94  A    between atoms: _268  and  _269
REMARK   95  A    between atoms: _268  and  _271
REMARK   96  A    between atoms: _271  and  _272
REMARK   97  A    between atoms: _274  and  _276
REMARK   98  A    between atoms: _276  and  _277
REMARK   99  A    between atoms: _276  and  _279
REMARK  100  A    between atoms: _279  and  _280
REMARK  101  A    between atoms: _283  and  _285
REMARK  102  A    between atoms: _285  and  _286
REMARK  103  A    between atoms: _285  and  _288
REMARK  104  A    between atoms: _288  and  _289
REMARK  105  A    between atoms: _292  and  _294
REMARK  106  A    between atoms: _294  and  _295
REMARK  107  A    between atoms: _294  and  _297
REMARK  108  A    between atoms: _297  and  _298
REMARK  109  A    between atoms: _304  and  _306
REMARK  110  A    between atoms: _306  and  _307
REMARK  111  A    between atoms: _306  and  _309
REMARK  112  A    between atoms: _309  and  _310
REMARK                            x       y       z     vdW  Elec       q    Type
REMARK                         _______ _______ _______ _____ _____    ______ ____
ROOT
ATOM      1  O   HOH     1      16.916 -69.422  22.998  0.00  0.00    +0.000 OA
ENDROOT
TORSDOF 0
REMARK  Name = ../refined-set-2016/4avi/4avi_pocket.pdb
REMARK  112 active torsions:
REMARK  status: ('A' for Active; 'I' for Inactive)
REMARK    1  A    between atoms: _1  and  _5
REMARK    2  A    between atoms: _5  and  _6
REMARK    3  A    between atoms: _5  and  _8
REMARK    4  A    between atoms: _8  and  _9
REMARK    5  A    between atoms: _15  and  _17
REMARK    6  A    between atoms: _17  and  _18
REMARK    7  A    between atoms: _22  and  _23
REMARK    8  A    between atoms: _28  and  _30
REMARK    9  A    between atoms: _30  and  _31
REMARK   10  A    between atoms: _30  and  _33
REMARK   11  A    between atoms: _33  and  _34
REMARK   12  A    between atoms: _37  and  _39
REMARK   13  A    between atoms: _39  and  _40
REMARK   14  A    between atoms: _42  and  _44
REMARK   15  A    between atoms: _44  and  _45
REMARK   16  A    between atoms: _47  and  _49
REMARK   17  A    between atoms: _60  and  _63
REMARK   18  A    between atoms: _63  and  _64
REMARK   19  A    between atoms: _71  and  _72
REMARK   20  A    between atoms: _78  and  _80
REMARK   21  A    between atoms: _80  and  _81
REMARK   22  A    between atoms: _80  and  _83
REMARK   23  A    between atoms: _83  and  _84
REMARK   24  A    between atoms: _89  and  _90
REMARK   25  A    between atoms: _93  and  _94
REMARK   26  A    between atoms: _99  and  _101
REMARK   27  A    between atoms: _101  and  _102
REMARK   28  A    between atoms: _101  and  _104
REMARK   29  A    between atoms: _104  and  _105
REMARK   30  A    between atoms: _105  and  _106
REMARK   31  A    between atoms: _109  and  _111
REMARK   32  A    between atoms: _111  and  _112
REMARK   33  A    between atoms: _111  and  _114
REMARK   34  A    between atoms: _114  and  _115
REMARK   35  A    between atoms: _118  and  _120
REMARK   36  A    between atoms: _120  and  _121
REMARK   37  A    between atoms: _120  and  _123
REMARK   38  A    between atoms: _123  and  _124
REMARK   39  A    between atoms: _127  and  _129
REMARK   40  A    between atoms: _129  and  _130
REMARK   41  A    between atoms: _129  and  _132
REMARK   42  A    between atoms: _132  and  _133
REMARK   43  A    between atoms: _136  and  _138
REMARK   44  A    between atoms: _138  and  _139
REMARK   45  A    between atoms: _138  and  _141
REMARK   46  A    between atoms: _141  and  _142
REMARK   47  A    between atoms: _145  and  _147
REMARK   48  A    between atoms: _147  and  _148
REMARK   49  A    between atoms: _147  and  _150
REMARK   50  A    between atoms: _150  and  _151
REMARK   51  A    between atoms: _156  and  _157
REMARK   52  A    between atoms: _159  and  _161
REMARK   53  A    between atoms: _161  and  _162
REMARK   54  A    between atoms: _161  and  _164
REMARK   55  A    between atoms: _164  and  _165
REMARK   56  A    between atoms: _170  and  _171
REMARK   57  A    between atoms: _173  and  _175
REMARK   58  A    between atoms: _175  and  _176
REMARK   59  A    between atoms: _175  and  _178
REMARK   60  A    between atoms: _178  and  _179
REMARK   61  A    between atoms: _181  and  _183
REMARK   62  A    between atoms: _183  and  _184
REMARK   63  A    between atoms: _183  and  _186
REMARK   64  A    between atoms: _186  and  _187
REMARK   65  A    between atoms: _187  and  _188
REMARK   66  A    between atoms: _188  and  _189
REMARK   67  A    between atoms: _198  and  _200
REMARK   68  A    between atoms: _200  and  _201
REMARK   69  A    between atoms: _200  and  _203
REMARK   70  A    between atoms: _203  and  _204
REMARK   71  A    between atoms: _204  and  _205
REMARK   72  A    between atoms: _210  and  _212
REMARK   73  A    between atoms: _212  and  _213
REMARK   74  A    between atoms: _212  and  _215
REMARK   75  A    between atoms: _215  and  _216
REMARK   76  A    between atoms: _219  and  _221
REMARK   77  A    between atoms: _221  and  _222
REMARK   78  A    between atoms: _221  and  _224
REMARK   79  A    between atoms: _224  and  _225
REMARK   80  A    between atoms: _230  and  _232
REMARK   81  A    between atoms: _232  and  _233
REMARK   82  A    between atoms: _232  and  _235
REMARK   83  A    between atoms: _235  and  _236
REMARK   84  A    between atoms: _241  and  _243
REMARK   85  A    between atoms: _243  and  _244
REMARK   86  A    between atoms: _243  and  _246
REMARK   87  A    between atoms: _246  and  _247
REMARK   88  A    between atoms: _252  and  _253
REMARK   89  A    between atoms: _255  and  _257
REMARK   90  A    between atoms: _257  and  _258
REMARK   91  A    between atoms: _257  and  _260
REMARK   92  A    between atoms: _260  and  _261
REMARK   93  A    between atoms: _266  and  _268
REMARK   94  A    between atoms: _268  and  _269
REMARK   95  A    between atoms: _268  and  _271
REMARK   96  A    between atoms: _271  and  _272
REMARK   97  A    between atoms: _274  and  _276
REMARK   98  A    between atoms: _276  and  _277
REMARK   99  A    between atoms: _276  and  _279
REMARK  100  A    between atoms: _279  and  _280
REMARK  101  A    between atoms: _283  and  _285
REMARK  102  A    between atoms: _285  and  _286
REMARK  103  A    between atoms: _285  and  _288
REMARK  104  A    between atoms: _288  and  _289
REMARK  105  A    between atoms: _292  and  _294
REMARK  106  A    between atoms: _294  and  _295
REMARK  107  A    between atoms: _294  and  _297
REMARK  108  A    between atoms: _297  and  _298
REMARK  109  A    between atoms: _304  and  _306
REMARK  110  A    between atoms: _306  and  _307
REMARK  111  A    between atoms: _306  and  _309
REMARK  112  A    between atoms: _309  and  _310
REMARK                            x       y       z     vdW  Elec       q    Type
REMARK                         _______ _______ _______ _____ _____    ______ ____
ROOT
ATOM      1  O   HOH     1      10.323 -65.842  22.728  0.00  0.00    +0.000 OA
ENDROOT
TORSDOF 0
REMARK  Name = ../refined-set-2016/4avi/4avi_pocket.pdb
REMARK  112 active torsions:
REMARK  status: ('A' for Active; 'I' for Inactive)
REMARK    1  A    between atoms: _1  and  _5
REMARK    2  A    between atoms: _5  and  _6
REMARK    3  A    between atoms: _5  and  _8
REMARK    4  A    between atoms: _8  and  _9
REMARK    5  A    between atoms: _15  and  _17
REMARK    6  A    between atoms: _17  and  _18
REMARK    7  A    between atoms: _22  and  _23
REMARK    8  A    between atoms: _28  and  _30
REMARK    9  A    between atoms: _30  and  _31
REMARK   10  A    between atoms: _30  and  _33
REMARK   11  A    between atoms: _33  and  _34
REMARK   12  A    between atoms: _37  and  _39
REMARK   13  A    between atoms: _39  and  _40
REMARK   14  A    between atoms: _42  and  _44
REMARK   15  A    between atoms: _44  and  _45
REMARK   16  A    between atoms: _47  and  _49
REMARK   17  A    between atoms: _60  and  _63
REMARK   18  A    between atoms: _63  and  _64
REMARK   19  A    between atoms: _71  and  _72
REMARK   20  A    between atoms: _78  and  _80
REMARK   21  A    between atoms: _80  and  _81
REMARK   22  A    between atoms: _80  and  _83
REMARK   23  A    between atoms: _83  and  _84
REMARK   24  A    between atoms: _89  and  _90
REMARK   25  A    between atoms: _93  and  _94
REMARK   26  A    between atoms: _99  and  _101
REMARK   27  A    between atoms: _101  and  _102
REMARK   28  A    between atoms: _101  and  _104
REMARK   29  A    between atoms: _104  and  _105
REMARK   30  A    between atoms: _105  and  _106
REMARK   31  A    between atoms: _109  and  _111
REMARK   32  A    between atoms: _111  and  _112
REMARK   33  A    between atoms: _111  and  _114
REMARK   34  A    between atoms: _114  and  _115
REMARK   35  A    between atoms: _118  and  _120
REMARK   36  A    between atoms: _120  and  _121
REMARK   37  A    between atoms: _120  and  _123
REMARK   38  A    between atoms: _123  and  _124
REMARK   39  A    between atoms: _127  and  _129
REMARK   40  A    between atoms: _129  and  _130
REMARK   41  A    between atoms: _129  and  _132
REMARK   42  A    between atoms: _132  and  _133
REMARK   43  A    between atoms: _136  and  _138
REMARK   44  A    between atoms: _138  and  _139
REMARK   45  A    between atoms: _138  and  _141
REMARK   46  A    between atoms: _141  and  _142
REMARK   47  A    between atoms: _145  and  _147
REMARK   48  A    between atoms: _147  and  _148
REMARK   49  A    between atoms: _147  and  _150
REMARK   50  A    between atoms: _150  and  _151
REMARK   51  A    between atoms: _156  and  _157
REMARK   52  A    between atoms: _159  and  _161
REMARK   53  A    between atoms: _161  and  _162
REMARK   54  A    between atoms: _161  and  _164
REMARK   55  A    between atoms: _164  and  _165
REMARK   56  A    between atoms: _170  and  _171
REMARK   57  A    between atoms: _173  and  _175
REMARK   58  A    between atoms: _175  and  _176
REMARK   59  A    between atoms: _175  and  _178
REMARK   60  A    between atoms: _178  and  _179
REMARK   61  A    between atoms: _181  and  _183
REMARK   62  A    between atoms: _183  and  _184
REMARK   63  A    between atoms: _183  and  _186
REMARK   64  A    between atoms: _186  and  _187
REMARK   65  A    between atoms: _187  and  _188
REMARK   66  A    between atoms: _188  and  _189
REMARK   67  A    between atoms: _198  and  _200
REMARK   68  A    between atoms: _200  and  _201
REMARK   69  A    between atoms: _200  and  _203
REMARK   70  A    between atoms: _203  and  _204
REMARK   71  A    between atoms: _204  and  _205
REMARK   72  A    between atoms: _210  and  _212
REMARK   73  A    between atoms: _212  and  _213
REMARK   74  A    between atoms: _212  and  _215
REMARK   75  A    between atoms: _215  and  _216
REMARK   76  A    between atoms: _219  and  _221
REMARK   77  A    between atoms: _221  and  _222
REMARK   78  A    between atoms: _221  and  _224
REMARK   79  A    between atoms: _224  and  _225
REMARK   80  A    between atoms: _230  and  _232
REMARK   81  A    between atoms: _232  and  _233
REMARK   82  A    between atoms: _232  and  _235
REMARK   83  A    between atoms: _235  and  _236
REMARK   84  A    between atoms: _241  and  _243
REMARK   85  A    between atoms: _243  and  _244
REMARK   86  A    between atoms: _243  and  _246
REMARK   87  A    between atoms: _246  and  _247
REMARK   88  A    between atoms: _252  and  _253
REMARK   89  A    between atoms: _255  and  _257
REMARK   90  A    between atoms: _257  and  _258
REMARK   91  A    between atoms: _257  and  _260
REMARK   92  A    between atoms: _260  and  _261
REMARK   93  A    between atoms: _266  and  _268
REMARK   94  A    between atoms: _268  and  _269
REMARK   95  A    between atoms: _268  and  _271
REMARK   96  A    between atoms: _271  and  _272
REMARK   97  A    between atoms: _274  and  _276
REMARK   98  A    between atoms: _276  and  _277
REMARK   99  A    between atoms: _276  and  _279
REMARK  100  A    between atoms: _279  and  _280
REMARK  101  A    between atoms: _283  and  _285
REMARK  102  A    between atoms: _285  and  _286
REMARK  103  A    between atoms: _285  and  _288
REMARK  104  A    between atoms: _288  and  _289
REMARK  105  A    between atoms: _292  and  _294
REMARK  106  A    between atoms: _294  and  _295
REMARK  107  A    between atoms: _294  and  _297
REMARK  108  A    between atoms: _297  and  _298
REMARK  109  A    between atoms: _304  and  _306
REMARK  110  A    between atoms: _306  and  _307
REMARK  111  A    between atoms: _306  and  _309
REMARK  112  A    between atoms: _309  and  _310
REMARK                            x       y       z     vdW  Elec       q    Type
REMARK                         _______ _______ _______ _____ _____    ______ ____
ROOT
ATOM      1  O   HOH     1      13.858 -58.605  29.331  0.00  0.00    +0.000 OA
ENDROOT
TORSDOF 0
