REMARK  Name = ../refined-set-2016/3b66/3b66_pocket.pdb
REMARK  260 active torsions:
REMARK  status: ('A' for Active; 'I' for Inactive)
REMARK    1  A    between atoms: _1  and  _3
REMARK    2  A    between atoms: _3  and  _4
REMARK    3  A    between atoms: _3  and  _6
REMARK    4  A    between atoms: _9  and  _11
REMARK    5  A    between atoms: _11  and  _12
REMARK    6  A    between atoms: _15  and  _17
REMARK    7  A    between atoms: _17  and  _18
REMARK    8  A    between atoms: _17  and  _20
REMARK    9  A    between atoms: _20  and  _21
REMARK   10  A    between atoms: _24  and  _26
REMARK   11  A    between atoms: _26  and  _27
REMARK   12  A    between atoms: _26  and  _29
REMARK   13  A    between atoms: _29  and  _30
REMARK   14  A    between atoms: _33  and  _35
REMARK   15  A    between atoms: _35  and  _36
REMARK   16  A    between atoms: _35  and  _38
REMARK   17  A    between atoms: _38  and  _39
REMARK   18  A    between atoms: _41  and  _43
REMARK   19  A    between atoms: _43  and  _44
REMARK   20  A    between atoms: _43  and  _46
REMARK   21  A    between atoms: _46  and  _47
REMARK   22  A    between atoms: _49  and  _51
REMARK   23  A    between atoms: _51  and  _52
REMARK   24  A    between atoms: _51  and  _54
REMARK   25  A    between atoms: _54  and  _55
REMARK   26  A    between atoms: _58  and  _60
REMARK   27  A    between atoms: _60  and  _61
REMARK   28  A    between atoms: _60  and  _63
REMARK   29  A    between atoms: _63  and  _64
REMARK   30  A    between atoms: _69  and  _71
REMARK   31  A    between atoms: _71  and  _72
REMARK   32  A    between atoms: _71  and  _74
REMARK   33  A    between atoms: _74  and  _75
REMARK   34  A    between atoms: _75  and  _76
REMARK   35  A    between atoms: _79  and  _81
REMARK   36  A    between atoms: _81  and  _82
REMARK   37  A    between atoms: _81  and  _84
REMARK   38  A    between atoms: _84  and  _85
REMARK   39  A    between atoms: _88  and  _90
REMARK   40  A    between atoms: _90  and  _91
REMARK   41  A    between atoms: _93  and  _95
REMARK   42  A    between atoms: _95  and  _96
REMARK   43  A    between atoms: _95  and  _98
REMARK   44  A    between atoms: _98  and  _99
REMARK   45  A    between atoms: _99  and  _100
REMARK   46  A    between atoms: _103  and  _105
REMARK   47  A    between atoms: _105  and  _106
REMARK   48  A    between atoms: _105  and  _108
REMARK   49  A    between atoms: _108  and  _109
REMARK   50  A    between atoms: _109  and  _110
REMARK   51  A    between atoms: _110  and  _111
REMARK   52  A    between atoms: _120  and  _122
REMARK   53  A    between atoms: _122  and  _123
REMARK   54  A    between atoms: _122  and  _125
REMARK   55  A    between atoms: _125  and  _126
REMARK   56  A    between atoms: _126  and  _127
REMARK   57  A    between atoms: _132  and  _134
REMARK   58  A    between atoms: _134  and  _135
REMARK   59  A    between atoms: _134  and  _137
REMARK   60  A    between atoms: _137  and  _138
REMARK   61  A    between atoms: _141  and  _143
REMARK   62  A    between atoms: _143  and  _144
REMARK   63  A    between atoms: _143  and  _146
REMARK   64  A    between atoms: _146  and  _147
REMARK   65  A    between atoms: _150  and  _152
REMARK   66  A    between atoms: _152  and  _153
REMARK   67  A    between atoms: _152  and  _155
REMARK   68  A    between atoms: _155  and  _156
REMARK   69  A    between atoms: _156  and  _157
REMARK   70  A    between atoms: _162  and  _164
REMARK   71  A    between atoms: _164  and  _165
REMARK   72  A    between atoms: _164  and  _167
REMARK   73  A    between atoms: _167  and  _168
REMARK   74  A    between atoms: _173  and  _174
REMARK   75  A    between atoms: _176  and  _178
REMARK   76  A    between atoms: _178  and  _179
REMARK   77  A    between atoms: _178  and  _181
REMARK   78  A    between atoms: _181  and  _182
REMARK   79  A    between atoms: _184  and  _186
REMARK   80  A    between atoms: _186  and  _187
REMARK   81  A    between atoms: _186  and  _189
REMARK   82  A    between atoms: _189  and  _190
REMARK   83  A    between atoms: _200  and  _202
REMARK   84  A    between atoms: _202  and  _203
REMARK   85  A    between atoms: _202  and  _205
REMARK   86  A    between atoms: _205  and  _206
REMARK   87  A    between atoms: _206  and  _207
REMARK   88  A    between atoms: _209  and  _211
REMARK   89  A    between atoms: _211  and  _212
REMARK   90  A    between atoms: _214  and  _216
REMARK   91  A    between atoms: _216  and  _217
REMARK   92  A    between atoms: _216  and  _219
REMARK   93  A    between atoms: _219  and  _220
REMARK   94  A    between atoms: _223  and  _225
REMARK   95  A    between atoms: _225  and  _226
REMARK   96  A    between atoms: _225  and  _228
REMARK   97  A    between atoms: _228  and  _229
REMARK   98  A    between atoms: _229  and  _230
REMARK   99  A    between atoms: _232  and  _234
REMARK  100  A    between atoms: _234  and  _235
REMARK  101  A    between atoms: _234  and  _237
REMARK  102  A    between atoms: _240  and  _242
REMARK  103  A    between atoms: _242  and  _243
REMARK  104  A    between atoms: _242  and  _245
REMARK  105  A    between atoms: _245  and  _246
REMARK  106  A    between atoms: _252  and  _254
REMARK  107  A    between atoms: _254  and  _255
REMARK  108  A    between atoms: _258  and  _260
REMARK  109  A    between atoms: _260  and  _261
REMARK  110  A    between atoms: _260  and  _263
REMARK  111  A    between atoms: _263  and  _264
REMARK  112  A    between atoms: _264  and  _265
REMARK  113  A    between atoms: _267  and  _269
REMARK  114  A    between atoms: _269  and  _270
REMARK  115  A    between atoms: _272  and  _274
REMARK  116  A    between atoms: _274  and  _275
REMARK  117  A    between atoms: _274  and  _277
REMARK  118  A    between atoms: _277  and  _278
REMARK  119  A    between atoms: _288  and  _290
REMARK  120  A    between atoms: _290  and  _291
REMARK  121  A    between atoms: _290  and  _293
REMARK  122  A    between atoms: _293  and  _294
REMARK  123  A    between atoms: _294  and  _295
REMARK  124  A    between atoms: _295  and  _296
REMARK  125  A    between atoms: _305  and  _307
REMARK  126  A    between atoms: _307  and  _308
REMARK  127  A    between atoms: _307  and  _310
REMARK  128  A    between atoms: _310  and  _311
REMARK  129  A    between atoms: _313  and  _315
REMARK  130  A    between atoms: _315  and  _316
REMARK  131  A    between atoms: _315  and  _318
REMARK  132  A    between atoms: _318  and  _319
REMARK  133  A    between atoms: _322  and  _324
REMARK  134  A    between atoms: _324  and  _325
REMARK  135  A    between atoms: _324  and  _327
REMARK  136  A    between atoms: _327  and  _328
REMARK  137  A    between atoms: _333  and  _334
REMARK  138  A    between atoms: _336  and  _338
REMARK  139  A    between atoms: _338  and  _339
REMARK  140  A    between atoms: _338  and  _341
REMARK  141  A    between atoms: _341  and  _342
REMARK  142  A    between atoms: _348  and  _350
REMARK  143  A    between atoms: _350  and  _351
REMARK  144  A    between atoms: _354  and  _356
REMARK  145  A    between atoms: _356  and  _357
REMARK  146  A    between atoms: _356  and  _359
REMARK  147  A    between atoms: _359  and  _360
REMARK  148  A    between atoms: _363  and  _365
REMARK  149  A    between atoms: _365  and  _366
REMARK  150  A    between atoms: _365  and  _368
REMARK  151  A    between atoms: _368  and  _369
REMARK  152  A    between atoms: _371  and  _373
REMARK  153  A    between atoms: _373  and  _374
REMARK  154  A    between atoms: _373  and  _376
REMARK  155  A    between atoms: _376  and  _377
REMARK  156  A    between atoms: _377  and  _378
REMARK  157  A    between atoms: _380  and  _382
REMARK  158  A    between atoms: _382  and  _383
REMARK  159  A    between atoms: _382  and  _385
REMARK  160  A    between atoms: _385  and  _386
REMARK  161  A    between atoms: _386  and  _387
REMARK  162  A    between atoms: _392  and  _394
REMARK  163  A    between atoms: _394  and  _395
REMARK  164  A    between atoms: _394  and  _397
REMARK  165  A    between atoms: _399  and  _401
REMARK  166  A    between atoms: _401  and  _402
REMARK  167  A    between atoms: _401  and  _404
REMARK  168  A    between atoms: _404  and  _405
REMARK  169  A    between atoms: _405  and  _406
REMARK  170  A    between atoms: _408  and  _410
REMARK  171  A    between atoms: _410  and  _411
REMARK  172  A    between atoms: _410  and  _413
REMARK  173  A    between atoms: _413  and  _414
REMARK  174  A    between atoms: _417  and  _419
REMARK  175  A    between atoms: _419  and  _420
REMARK  176  A    between atoms: _423  and  _425
REMARK  177  A    between atoms: _425  and  _426
REMARK  178  A    between atoms: _425  and  _428
REMARK  179  A    between atoms: _428  and  _429
REMARK  180  A    between atoms: _432  and  _434
REMARK  181  A    between atoms: _434  and  _435
REMARK  182  A    between atoms: _434  and  _437
REMARK  183  A    between atoms: _437  and  _438
REMARK  184  A    between atoms: _443  and  _445
REMARK  185  A    between atoms: _445  and  _446
REMARK  186  A    between atoms: _445  and  _448
REMARK  187  A    between atoms: _448  and  _449
REMARK  188  A    between atoms: _455  and  _457
REMARK  189  A    between atoms: _457  and  _458
REMARK  190  A    between atoms: _457  and  _460
REMARK  191  A    between atoms: _460  and  _461
REMARK  192  A    between atoms: _464  and  _466
REMARK  193  A    between atoms: _466  and  _467
REMARK  194  A    between atoms: _466  and  _469
REMARK  195  A    between atoms: _469  and  _470
REMARK  196  A    between atoms: _476  and  _478
REMARK  197  A    between atoms: _478  and  _479
REMARK  198  A    between atoms: _478  and  _481
REMARK  199  A    between atoms: _481  and  _482
REMARK  200  A    between atoms: _485  and  _487
REMARK  201  A    between atoms: _487  and  _488
REMARK  202  A    between atoms: _487  and  _490
REMARK  203  A    between atoms: _490  and  _491
REMARK  204  A    between atoms: _494  and  _496
REMARK  205  A    between atoms: _496  and  _497
REMARK  206  A    between atoms: _496  and  _499
REMARK  207  A    between atoms: _502  and  _504
REMARK  208  A    between atoms: _504  and  _505
REMARK  209  A    between atoms: _504  and  _507
REMARK  210  A    between atoms: _507  and  _508
REMARK  211  A    between atoms: _511  and  _513
REMARK  212  A    between atoms: _513  and  _514
REMARK  213  A    between atoms: _513  and  _516
REMARK  214  A    between atoms: _516  and  _517
REMARK  215  A    between atoms: _524  and  _525
REMARK  216  A    between atoms: _530  and  _532
REMARK  217  A    between atoms: _532  and  _533
REMARK  218  A    between atoms: _532  and  _535
REMARK  219  A    between atoms: _535  and  _536
REMARK  220  A    between atoms: _536  and  _537
REMARK  221  A    between atoms: _539  and  _541
REMARK  222  A    between atoms: _541  and  _542
REMARK  223  A    between atoms: _541  and  _544
REMARK  224  A    between atoms: _544  and  _545
REMARK  225  A    between atoms: _545  and  _546
REMARK  226  A    between atoms: _548  and  _550
REMARK  227  A    between atoms: _550  and  _551
REMARK  228  A    between atoms: _554  and  _556
REMARK  229  A    between atoms: _556  and  _557
REMARK  230  A    between atoms: _556  and  _559
REMARK  231  A    between atoms: _559  and  _560
REMARK  232  A    between atoms: _560  and  _561
REMARK  233  A    between atoms: _564  and  _566
REMARK  234  A    between atoms: _566  and  _567
REMARK  235  A    between atoms: _566  and  _569
REMARK  236  A    between atoms: _569  and  _570
REMARK  237  A    between atoms: _573  and  _575
REMARK  238  A    between atoms: _575  and  _576
REMARK  239  A    between atoms: _575  and  _578
REMARK  240  A    between atoms: _578  and  _579
REMARK  241  A    between atoms: _582  and  _584
REMARK  242  A    between atoms: _584  and  _585
REMARK  243  A    between atoms: _584  and  _587
REMARK  244  A    between atoms: _587  and  _588
REMARK  245  A    between atoms: _590  and  _592
REMARK  246  A    between atoms: _592  and  _593
REMARK  247  A    between atoms: _592  and  _595
REMARK  248  A    between atoms: _598  and  _600
REMARK  249  A    between atoms: _600  and  _601
REMARK  250  A    between atoms: _600  and  _603
REMARK  251  A    between atoms: _603  and  _604
REMARK  252  A    between atoms: _604  and  _605
REMARK  253  A    between atoms: _610  and  _612
REMARK  254  A    between atoms: _612  and  _613
REMARK  255  A    between atoms: _612  and  _615
REMARK  256  A    between atoms: _619  and  _620
REMARK  257  A    between atoms: _625  and  _627
REMARK  258  A    between atoms: _627  and  _628
REMARK  259  A    between atoms: _627  and  _630
REMARK  260  A    between atoms: _630  and  _631
REMARK                            x       y       z     vdW  Elec       q    Type
REMARK                         _______ _______ _______ _____ _____    ______ ____
ROOT
ATOM      1  CA  VAL A   1      28.689  15.411   2.528  0.00  0.00    +0.133 C 
ENDROOT
BRANCH   1   2
ATOM      2  CB  VAL A   1      28.682  14.415   3.711  0.00  0.00    +0.023 C 
ATOM      3  CG2 VAL A   1      28.425  15.158   5.016  0.00  0.00    +0.002 C 
ATOM      4  CG1 VAL A   1      30.016  13.679   3.782  0.00  0.00    +0.002 C 
ENDBRANCH   1   2
BRANCH   1   5
ATOM      5  N   VAL A   1      27.430  16.145   2.433  0.00  0.00    -0.239 NA
ATOM      6  H   VAL A   1      26.554  15.622   2.231  0.00  0.00    +0.142 HD
ENDBRANCH   1   5
BRANCH   1   7
ATOM      7  C   VAL A   1      28.865  14.640   1.221  0.00  0.00    +0.224 C 
ATOM      8  O   VAL A   1      27.991  13.875   0.824  0.00  0.00    -0.287 OA
ENDBRANCH   1   7
TORSDOF 3
REMARK  Name = ../refined-set-2016/3b66/3b66_pocket.pdb
REMARK  260 active torsions:
REMARK  status: ('A' for Active; 'I' for Inactive)
REMARK    1  A    between atoms: _1  and  _3
REMARK    2  A    between atoms: _3  and  _4
REMARK    3  A    between atoms: _3  and  _6
REMARK    4  A    between atoms: _9  and  _11
REMARK    5  A    between atoms: _11  and  _12
REMARK    6  A    between atoms: _15  and  _17
REMARK    7  A    between atoms: _17  and  _18
REMARK    8  A    between atoms: _17  and  _20
REMARK    9  A    between atoms: _20  and  _21
REMARK   10  A    between atoms: _24  and  _26
REMARK   11  A    between atoms: _26  and  _27
REMARK   12  A    between atoms: _26  and  _29
REMARK   13  A    between atoms: _29  and  _30
REMARK   14  A    between atoms: _33  and  _35
REMARK   15  A    between atoms: _35  and  _36
REMARK   16  A    between atoms: _35  and  _38
REMARK   17  A    between atoms: _38  and  _39
REMARK   18  A    between atoms: _41  and  _43
REMARK   19  A    between atoms: _43  and  _44
REMARK   20  A    between atoms: _43  and  _46
REMARK   21  A    between atoms: _46  and  _47
REMARK   22  A    between atoms: _49  and  _51
REMARK   23  A    between atoms: _51  and  _52
REMARK   24  A    between atoms: _51  and  _54
REMARK   25  A    between atoms: _54  and  _55
REMARK   26  A    between atoms: _58  and  _60
REMARK   27  A    between atoms: _60  and  _61
REMARK   28  A    between atoms: _60  and  _63
REMARK   29  A    between atoms: _63  and  _64
REMARK   30  A    between atoms: _69  and  _71
REMARK   31  A    between atoms: _71  and  _72
REMARK   32  A    between atoms: _71  and  _74
REMARK   33  A    between atoms: _74  and  _75
REMARK   34  A    between atoms: _75  and  _76
REMARK   35  A    between atoms: _79  and  _81
REMARK   36  A    between atoms: _81  and  _82
REMARK   37  A    between atoms: _81  and  _84
REMARK   38  A    between atoms: _84  and  _85
REMARK   39  A    between atoms: _88  and  _90
REMARK   40  A    between atoms: _90  and  _91
REMARK   41  A    between atoms: _93  and  _95
REMARK   42  A    between atoms: _95  and  _96
REMARK   43  A    between atoms: _95  and  _98
REMARK   44  A    between atoms: _98  and  _99
REMARK   45  A    between atoms: _99  and  _100
REMARK   46  A    between atoms: _103  and  _105
REMARK   47  A    between atoms: _105  and  _106
REMARK   48  A    between atoms: _105  and  _108
REMARK   49  A    between atoms: _108  and  _109
REMARK   50  A    between atoms: _109  and  _110
REMARK   51  A    between atoms: _110  and  _111
REMARK   52  A    between atoms: _120  and  _122
REMARK   53  A    between atoms: _122  and  _123
REMARK   54  A    between atoms: _122  and  _125
REMARK   55  A    between atoms: _125  and  _126
REMARK   56  A    between atoms: _126  and  _127
REMARK   57  A    between atoms: _132  and  _134
REMARK   58  A    between atoms: _134  and  _135
REMARK   59  A    between atoms: _134  and  _137
REMARK   60  A    between atoms: _137  and  _138
REMARK   61  A    between atoms: _141  and  _143
REMARK   62  A    between atoms: _143  and  _144
REMARK   63  A    between atoms: _143  and  _146
REMARK   64  A    between atoms: _146  and  _147
REMARK   65  A    between atoms: _150  and  _152
REMARK   66  A    between atoms: _152  and  _153
REMARK   67  A    between atoms: _152  and  _155
REMARK   68  A    between atoms: _155  and  _156
REMARK   69  A    between atoms: _156  and  _157
REMARK   70  A    between atoms: _162  and  _164
REMARK   71  A    between atoms: _164  and  _165
REMARK   72  A    between atoms: _164  and  _167
REMARK   73  A    between atoms: _167  and  _168
REMARK   74  A    between atoms: _173  and  _174
REMARK   75  A    between atoms: _176  and  _178
REMARK   76  A    between atoms: _178  and  _179
REMARK   77  A    between atoms: _178  and  _181
REMARK   78  A    between atoms: _181  and  _182
REMARK   79  A    between atoms: _184  and  _186
REMARK   80  A    between atoms: _186  and  _187
REMARK   81  A    between atoms: _186  and  _189
REMARK   82  A    between atoms: _189  and  _190
REMARK   83  A    between atoms: _200  and  _202
REMARK   84  A    between atoms: _202  and  _203
REMARK   85  A    between atoms: _202  and  _205
REMARK   86  A    between atoms: _205  and  _206
REMARK   87  A    between atoms: _206  and  _207
REMARK   88  A    between atoms: _209  and  _211
REMARK   89  A    between atoms: _211  and  _212
REMARK   90  A    between atoms: _214  and  _216
REMARK   91  A    between atoms: _216  and  _217
REMARK   92  A    between atoms: _216  and  _219
REMARK   93  A    between atoms: _219  and  _220
REMARK   94  A    between atoms: _223  and  _225
REMARK   95  A    between atoms: _225  and  _226
REMARK   96  A    between atoms: _225  and  _228
REMARK   97  A    between atoms: _228  and  _229
REMARK   98  A    between atoms: _229  and  _230
REMARK   99  A    between atoms: _232  and  _234
REMARK  100  A    between atoms: _234  and  _235
REMARK  101  A    between atoms: _234  and  _237
REMARK  102  A    between atoms: _240  and  _242
REMARK  103  A    between atoms: _242  and  _243
REMARK  104  A    between atoms: _242  and  _245
REMARK  105  A    between atoms: _245  and  _246
REMARK  106  A    between atoms: _252  and  _254
REMARK  107  A    between atoms: _254  and  _255
REMARK  108  A    between atoms: _258  and  _260
REMARK  109  A    between atoms: _260  and  _261
REMARK  110  A    between atoms: _260  and  _263
REMARK  111  A    between atoms: _263  and  _264
REMARK  112  A    between atoms: _264  and  _265
REMARK  113  A    between atoms: _267  and  _269
REMARK  114  A    between atoms: _269  and  _270
REMARK  115  A    between atoms: _272  and  _274
REMARK  116  A    between atoms: _274  and  _275
REMARK  117  A    between atoms: _274  and  _277
REMARK  118  A    between atoms: _277  and  _278
REMARK  119  A    between atoms: _288  and  _290
REMARK  120  A    between atoms: _290  and  _291
REMARK  121  A    between atoms: _290  and  _293
REMARK  122  A    between atoms: _293  and  _294
REMARK  123  A    between atoms: _294  and  _295
REMARK  124  A    between atoms: _295  and  _296
REMARK  125  A    between atoms: _305  and  _307
REMARK  126  A    between atoms: _307  and  _308
REMARK  127  A    between atoms: _307  and  _310
REMARK  128  A    between atoms: _310  and  _311
REMARK  129  A    between atoms: _313  and  _315
REMARK  130  A    between atoms: _315  and  _316
REMARK  131  A    between atoms: _315  and  _318
REMARK  132  A    between atoms: _318  and  _319
REMARK  133  A    between atoms: _322  and  _324
REMARK  134  A    between atoms: _324  and  _325
REMARK  135  A    between atoms: _324  and  _327
REMARK  136  A    between atoms: _327  and  _328
REMARK  137  A    between atoms: _333  and  _334
REMARK  138  A    between atoms: _336  and  _338
REMARK  139  A    between atoms: _338  and  _339
REMARK  140  A    between atoms: _338  and  _341
REMARK  141  A    between atoms: _341  and  _342
REMARK  142  A    between atoms: _348  and  _350
REMARK  143  A    between atoms: _350  and  _351
REMARK  144  A    between atoms: _354  and  _356
REMARK  145  A    between atoms: _356  and  _357
REMARK  146  A    between atoms: _356  and  _359
REMARK  147  A    between atoms: _359  and  _360
REMARK  148  A    between atoms: _363  and  _365
REMARK  149  A    between atoms: _365  and  _366
REMARK  150  A    between atoms: _365  and  _368
REMARK  151  A    between atoms: _368  and  _369
REMARK  152  A    between atoms: _371  and  _373
REMARK  153  A    between atoms: _373  and  _374
REMARK  154  A    between atoms: _373  and  _376
REMARK  155  A    between atoms: _376  and  _377
REMARK  156  A    between atoms: _377  and  _378
REMARK  157  A    between atoms: _380  and  _382
REMARK  158  A    between atoms: _382  and  _383
REMARK  159  A    between atoms: _382  and  _385
REMARK  160  A    between atoms: _385  and  _386
REMARK  161  A    between atoms: _386  and  _387
REMARK  162  A    between atoms: _392  and  _394
REMARK  163  A    between atoms: _394  and  _395
REMARK  164  A    between atoms: _394  and  _397
REMARK  165  A    between atoms: _399  and  _401
REMARK  166  A    between atoms: _401  and  _402
REMARK  167  A    between atoms: _401  and  _404
REMARK  168  A    between atoms: _404  and  _405
REMARK  169  A    between atoms: _405  and  _406
REMARK  170  A    between atoms: _408  and  _410
REMARK  171  A    between atoms: _410  and  _411
REMARK  172  A    between atoms: _410  and  _413
REMARK  173  A    between atoms: _413  and  _414
REMARK  174  A    between atoms: _417  and  _419
REMARK  175  A    between atoms: _419  and  _420
REMARK  176  A    between atoms: _423  and  _425
REMARK  177  A    between atoms: _425  and  _426
REMARK  178  A    between atoms: _425  and  _428
REMARK  179  A    between atoms: _428  and  _429
REMARK  180  A    between atoms: _432  and  _434
REMARK  181  A    between atoms: _434  and  _435
REMARK  182  A    between atoms: _434  and  _437
REMARK  183  A    between atoms: _437  and  _438
REMARK  184  A    between atoms: _443  and  _445
REMARK  185  A    between atoms: _445  and  _446
REMARK  186  A    between atoms: _445  and  _448
REMARK  187  A    between atoms: _448  and  _449
REMARK  188  A    between atoms: _455  and  _457
REMARK  189  A    between atoms: _457  and  _458
REMARK  190  A    between atoms: _457  and  _460
REMARK  191  A    between atoms: _460  and  _461
REMARK  192  A    between atoms: _464  and  _466
REMARK  193  A    between atoms: _466  and  _467
REMARK  194  A    between atoms: _466  and  _469
REMARK  195  A    between atoms: _469  and  _470
REMARK  196  A    between atoms: _476  and  _478
REMARK  197  A    between atoms: _478  and  _479
REMARK  198  A    between atoms: _478  and  _481
REMARK  199  A    between atoms: _481  and  _482
REMARK  200  A    between atoms: _485  and  _487
REMARK  201  A    between atoms: _487  and  _488
REMARK  202  A    between atoms: _487  and  _490
REMARK  203  A    between atoms: _490  and  _491
REMARK  204  A    between atoms: _494  and  _496
REMARK  205  A    between atoms: _496  and  _497
REMARK  206  A    between atoms: _496  and  _499
REMARK  207  A    between atoms: _502  and  _504
REMARK  208  A    between atoms: _504  and  _505
REMARK  209  A    between atoms: _504  and  _507
REMARK  210  A    between atoms: _507  and  _508
REMARK  211  A    between atoms: _511  and  _513
REMARK  212  A    between atoms: _513  and  _514
REMARK  213  A    between atoms: _513  and  _516
REMARK  214  A    between atoms: _516  and  _517
REMARK  215  A    between atoms: _524  and  _525
REMARK  216  A    between atoms: _530  and  _532
REMARK  217  A    between atoms: _532  and  _533
REMARK  218  A    between atoms: _532  and  _535
REMARK  219  A    between atoms: _535  and  _536
REMARK  220  A    between atoms: _536  and  _537
REMARK  221  A    between atoms: _539  and  _541
REMARK  222  A    between atoms: _541  and  _542
REMARK  223  A    between atoms: _541  and  _544
REMARK  224  A    between atoms: _544  and  _545
REMARK  225  A    between atoms: _545  and  _546
REMARK  226  A    between atoms: _548  and  _550
REMARK  227  A    between atoms: _550  and  _551
REMARK  228  A    between atoms: _554  and  _556
REMARK  229  A    between atoms: _556  and  _557
REMARK  230  A    between atoms: _556  and  _559
REMARK  231  A    between atoms: _559  and  _560
REMARK  232  A    between atoms: _560  and  _561
REMARK  233  A    between atoms: _564  and  _566
REMARK  234  A    between atoms: _566  and  _567
REMARK  235  A    between atoms: _566  and  _569
REMARK  236  A    between atoms: _569  and  _570
REMARK  237  A    between atoms: _573  and  _575
REMARK  238  A    between atoms: _575  and  _576
REMARK  239  A    between atoms: _575  and  _578
REMARK  240  A    between atoms: _578  and  _579
REMARK  241  A    between atoms: _582  and  _584
REMARK  242  A    between atoms: _584  and  _585
REMARK  243  A    between atoms: _584  and  _587
REMARK  244  A    between atoms: _587  and  _588
REMARK  245  A    between atoms: _590  and  _592
REMARK  246  A    between atoms: _592  and  _593
REMARK  247  A    between atoms: _592  and  _595
REMARK  248  A    between atoms: _598  and  _600
REMARK  249  A    between atoms: _600  and  _601
REMARK  250  A    between atoms: _600  and  _603
REMARK  251  A    between atoms: _603  and  _604
REMARK  252  A    between atoms: _604  and  _605
REMARK  253  A    between atoms: _610  and  _612
REMARK  254  A    between atoms: _612  and  _613
REMARK  255  A    between atoms: _612  and  _615
REMARK  256  A    between atoms: _619  and  _620
REMARK  257  A    between atoms: _625  and  _627
REMARK  258  A    between atoms: _627  and  _628
REMARK  259  A    between atoms: _627  and  _630
REMARK  260  A    between atoms: _630  and  _631
REMARK                            x       y       z     vdW  Elec       q    Type
REMARK                         _______ _______ _______ _____ _____    ______ ____
ROOT
ATOM      1  CA  ALA A   1      31.882  10.788  -1.328  0.00  0.00    +0.133 C 
ATOM      2  CB  ALA A   1      31.086   9.614  -1.922  0.00  0.00    +0.027 C 
ENDROOT
BRANCH   1   3
ATOM      3  N   ALA A   1      31.086  12.011  -1.415  0.00  0.00    -0.239 NA
ATOM      4  H   ALA A   1      30.441  12.134  -2.221  0.00  0.00    +0.142 HD
ENDBRANCH   1   3
BRANCH   1   5
ATOM      5  C   ALA A   1      33.251  10.871  -2.000  0.00  0.00    +0.224 C 
ATOM      6  O   ALA A   1      34.181  10.153  -1.609  0.00  0.00    -0.287 OA
ENDBRANCH   1   5
TORSDOF 2
REMARK  Name = ../refined-set-2016/3b66/3b66_pocket.pdb
REMARK  260 active torsions:
REMARK  status: ('A' for Active; 'I' for Inactive)
REMARK    1  A    between atoms: _1  and  _3
REMARK    2  A    between atoms: _3  and  _4
REMARK    3  A    between atoms: _3  and  _6
REMARK    4  A    between atoms: _9  and  _11
REMARK    5  A    between atoms: _11  and  _12
REMARK    6  A    between atoms: _15  and  _17
REMARK    7  A    between atoms: _17  and  _18
REMARK    8  A    between atoms: _17  and  _20
REMARK    9  A    between atoms: _20  and  _21
REMARK   10  A    between atoms: _24  and  _26
REMARK   11  A    between atoms: _26  and  _27
REMARK   12  A    between atoms: _26  and  _29
REMARK   13  A    between atoms: _29  and  _30
REMARK   14  A    between atoms: _33  and  _35
REMARK   15  A    between atoms: _35  and  _36
REMARK   16  A    between atoms: _35  and  _38
REMARK   17  A    between atoms: _38  and  _39
REMARK   18  A    between atoms: _41  and  _43
REMARK   19  A    between atoms: _43  and  _44
REMARK   20  A    between atoms: _43  and  _46
REMARK   21  A    between atoms: _46  and  _47
REMARK   22  A    between atoms: _49  and  _51
REMARK   23  A    between atoms: _51  and  _52
REMARK   24  A    between atoms: _51  and  _54
REMARK   25  A    between atoms: _54  and  _55
REMARK   26  A    between atoms: _58  and  _60
REMARK   27  A    between atoms: _60  and  _61
REMARK   28  A    between atoms: _60  and  _63
REMARK   29  A    between atoms: _63  and  _64
REMARK   30  A    between atoms: _69  and  _71
REMARK   31  A    between atoms: _71  and  _72
REMARK   32  A    between atoms: _71  and  _74
REMARK   33  A    between atoms: _74  and  _75
REMARK   34  A    between atoms: _75  and  _76
REMARK   35  A    between atoms: _79  and  _81
REMARK   36  A    between atoms: _81  and  _82
REMARK   37  A    between atoms: _81  and  _84
REMARK   38  A    between atoms: _84  and  _85
REMARK   39  A    between atoms: _88  and  _90
REMARK   40  A    between atoms: _90  and  _91
REMARK   41  A    between atoms: _93  and  _95
REMARK   42  A    between atoms: _95  and  _96
REMARK   43  A    between atoms: _95  and  _98
REMARK   44  A    between atoms: _98  and  _99
REMARK   45  A    between atoms: _99  and  _100
REMARK   46  A    between atoms: _103  and  _105
REMARK   47  A    between atoms: _105  and  _106
REMARK   48  A    between atoms: _105  and  _108
REMARK   49  A    between atoms: _108  and  _109
REMARK   50  A    between atoms: _109  and  _110
REMARK   51  A    between atoms: _110  and  _111
REMARK   52  A    between atoms: _120  and  _122
REMARK   53  A    between atoms: _122  and  _123
REMARK   54  A    between atoms: _122  and  _125
REMARK   55  A    between atoms: _125  and  _126
REMARK   56  A    between atoms: _126  and  _127
REMARK   57  A    between atoms: _132  and  _134
REMARK   58  A    between atoms: _134  and  _135
REMARK   59  A    between atoms: _134  and  _137
REMARK   60  A    between atoms: _137  and  _138
REMARK   61  A    between atoms: _141  and  _143
REMARK   62  A    between atoms: _143  and  _144
REMARK   63  A    between atoms: _143  and  _146
REMARK   64  A    between atoms: _146  and  _147
REMARK   65  A    between atoms: _150  and  _152
REMARK   66  A    between atoms: _152  and  _153
REMARK   67  A    between atoms: _152  and  _155
REMARK   68  A    between atoms: _155  and  _156
REMARK   69  A    between atoms: _156  and  _157
REMARK   70  A    between atoms: _162  and  _164
REMARK   71  A    between atoms: _164  and  _165
REMARK   72  A    between atoms: _164  and  _167
REMARK   73  A    between atoms: _167  and  _168
REMARK   74  A    between atoms: _173  and  _174
REMARK   75  A    between atoms: _176  and  _178
REMARK   76  A    between atoms: _178  and  _179
REMARK   77  A    between atoms: _178  and  _181
REMARK   78  A    between atoms: _181  and  _182
REMARK   79  A    between atoms: _184  and  _186
REMARK   80  A    between atoms: _186  and  _187
REMARK   81  A    between atoms: _186  and  _189
REMARK   82  A    between atoms: _189  and  _190
REMARK   83  A    between atoms: _200  and  _202
REMARK   84  A    between atoms: _202  and  _203
REMARK   85  A    between atoms: _202  and  _205
REMARK   86  A    between atoms: _205  and  _206
REMARK   87  A    between atoms: _206  and  _207
REMARK   88  A    between atoms: _209  and  _211
REMARK   89  A    between atoms: _211  and  _212
REMARK   90  A    between atoms: _214  and  _216
REMARK   91  A    between atoms: _216  and  _217
REMARK   92  A    between atoms: _216  and  _219
REMARK   93  A    between atoms: _219  and  _220
REMARK   94  A    between atoms: _223  and  _225
REMARK   95  A    between atoms: _225  and  _226
REMARK   96  A    between atoms: _225  and  _228
REMARK   97  A    between atoms: _228  and  _229
REMARK   98  A    between atoms: _229  and  _230
REMARK   99  A    between atoms: _232  and  _234
REMARK  100  A    between atoms: _234  and  _235
REMARK  101  A    between atoms: _234  and  _237
REMARK  102  A    between atoms: _240  and  _242
REMARK  103  A    between atoms: _242  and  _243
REMARK  104  A    between atoms: _242  and  _245
REMARK  105  A    between atoms: _245  and  _246
REMARK  106  A    between atoms: _252  and  _254
REMARK  107  A    between atoms: _254  and  _255
REMARK  108  A    between atoms: _258  and  _260
REMARK  109  A    between atoms: _260  and  _261
REMARK  110  A    between atoms: _260  and  _263
REMARK  111  A    between atoms: _263  and  _264
REMARK  112  A    between atoms: _264  and  _265
REMARK  113  A    between atoms: _267  and  _269
REMARK  114  A    between atoms: _269  and  _270
REMARK  115  A    between atoms: _272  and  _274
REMARK  116  A    between atoms: _274  and  _275
REMARK  117  A    between atoms: _274  and  _277
REMARK  118  A    between atoms: _277  and  _278
REMARK  119  A    between atoms: _288  and  _290
REMARK  120  A    between atoms: _290  and  _291
REMARK  121  A    between atoms: _290  and  _293
REMARK  122  A    between atoms: _293  and  _294
REMARK  123  A    between atoms: _294  and  _295
REMARK  124  A    between atoms: _295  and  _296
REMARK  125  A    between atoms: _305  and  _307
REMARK  126  A    between atoms: _307  and  _308
REMARK  127  A    between atoms: _307  and  _310
REMARK  128  A    between atoms: _310  and  _311
REMARK  129  A    between atoms: _313  and  _315
REMARK  130  A    between atoms: _315  and  _316
REMARK  131  A    between atoms: _315  and  _318
REMARK  132  A    between atoms: _318  and  _319
REMARK  133  A    between atoms: _322  and  _324
REMARK  134  A    between atoms: _324  and  _325
REMARK  135  A    between atoms: _324  and  _327
REMARK  136  A    between atoms: _327  and  _328
REMARK  137  A    between atoms: _333  and  _334
REMARK  138  A    between atoms: _336  and  _338
REMARK  139  A    between atoms: _338  and  _339
REMARK  140  A    between atoms: _338  and  _341
REMARK  141  A    between atoms: _341  and  _342
REMARK  142  A    between atoms: _348  and  _350
REMARK  143  A    between atoms: _350  and  _351
REMARK  144  A    between atoms: _354  and  _356
REMARK  145  A    between atoms: _356  and  _357
REMARK  146  A    between atoms: _356  and  _359
REMARK  147  A    between atoms: _359  and  _360
REMARK  148  A    between atoms: _363  and  _365
REMARK  149  A    between atoms: _365  and  _366
REMARK  150  A    between atoms: _365  and  _368
REMARK  151  A    between atoms: _368  and  _369
REMARK  152  A    between atoms: _371  and  _373
REMARK  153  A    between atoms: _373  and  _374
REMARK  154  A    between atoms: _373  and  _376
REMARK  155  A    between atoms: _376  and  _377
REMARK  156  A    between atoms: _377  and  _378
REMARK  157  A    between atoms: _380  and  _382
REMARK  158  A    between atoms: _382  and  _383
REMARK  159  A    between atoms: _382  and  _385
REMARK  160  A    between atoms: _385  and  _386
REMARK  161  A    between atoms: _386  and  _387
REMARK  162  A    between atoms: _392  and  _394
REMARK  163  A    between atoms: _394  and  _395
REMARK  164  A    between atoms: _394  and  _397
REMARK  165  A    between atoms: _399  and  _401
REMARK  166  A    between atoms: _401  and  _402
REMARK  167  A    between atoms: _401  and  _404
REMARK  168  A    between atoms: _404  and  _405
REMARK  169  A    between atoms: _405  and  _406
REMARK  170  A    between atoms: _408  and  _410
REMARK  171  A    between atoms: _410  and  _411
REMARK  172  A    between atoms: _410  and  _413
REMARK  173  A    between atoms: _413  and  _414
REMARK  174  A    between atoms: _417  and  _419
REMARK  175  A    between atoms: _419  and  _420
REMARK  176  A    between atoms: _423  and  _425
REMARK  177  A    between atoms: _425  and  _426
REMARK  178  A    between atoms: _425  and  _428
REMARK  179  A    between atoms: _428  and  _429
REMARK  180  A    between atoms: _432  and  _434
REMARK  181  A    between atoms: _434  and  _435
REMARK  182  A    between atoms: _434  and  _437
REMARK  183  A    between atoms: _437  and  _438
REMARK  184  A    between atoms: _443  and  _445
REMARK  185  A    between atoms: _445  and  _446
REMARK  186  A    between atoms: _445  and  _448
REMARK  187  A    between atoms: _448  and  _449
REMARK  188  A    between atoms: _455  and  _457
REMARK  189  A    between atoms: _457  and  _458
REMARK  190  A    between atoms: _457  and  _460
REMARK  191  A    between atoms: _460  and  _461
REMARK  192  A    between atoms: _464  and  _466
REMARK  193  A    between atoms: _466  and  _467
REMARK  194  A    between atoms: _466  and  _469
REMARK  195  A    between atoms: _469  and  _470
REMARK  196  A    between atoms: _476  and  _478
REMARK  197  A    between atoms: _478  and  _479
REMARK  198  A    between atoms: _478  and  _481
REMARK  199  A    between atoms: _481  and  _482
REMARK  200  A    between atoms: _485  and  _487
REMARK  201  A    between atoms: _487  and  _488
REMARK  202  A    between atoms: _487  and  _490
REMARK  203  A    between atoms: _490  and  _491
REMARK  204  A    between atoms: _494  and  _496
REMARK  205  A    between atoms: _496  and  _497
REMARK  206  A    between atoms: _496  and  _499
REMARK  207  A    between atoms: _502  and  _504
REMARK  208  A    between atoms: _504  and  _505
REMARK  209  A    between atoms: _504  and  _507
REMARK  210  A    between atoms: _507  and  _508
REMARK  211  A    between atoms: _511  and  _513
REMARK  212  A    between atoms: _513  and  _514
REMARK  213  A    between atoms: _513  and  _516
REMARK  214  A    between atoms: _516  and  _517
REMARK  215  A    between atoms: _524  and  _525
REMARK  216  A    between atoms: _530  and  _532
REMARK  217  A    between atoms: _532  and  _533
REMARK  218  A    between atoms: _532  and  _535
REMARK  219  A    between atoms: _535  and  _536
REMARK  220  A    between atoms: _536  and  _537
REMARK  221  A    between atoms: _539  and  _541
REMARK  222  A    between atoms: _541  and  _542
REMARK  223  A    between atoms: _541  and  _544
REMARK  224  A    between atoms: _544  and  _545
REMARK  225  A    between atoms: _545  and  _546
REMARK  226  A    between atoms: _548  and  _550
REMARK  227  A    between atoms: _550  and  _551
REMARK  228  A    between atoms: _554  and  _556
REMARK  229  A    between atoms: _556  and  _557
REMARK  230  A    between atoms: _556  and  _559
REMARK  231  A    between atoms: _559  and  _560
REMARK  232  A    between atoms: _560  and  _561
REMARK  233  A    between atoms: _564  and  _566
REMARK  234  A    between atoms: _566  and  _567
REMARK  235  A    between atoms: _566  and  _569
REMARK  236  A    between atoms: _569  and  _570
REMARK  237  A    between atoms: _573  and  _575
REMARK  238  A    between atoms: _575  and  _576
REMARK  239  A    between atoms: _575  and  _578
REMARK  240  A    between atoms: _578  and  _579
REMARK  241  A    between atoms: _582  and  _584
REMARK  242  A    between atoms: _584  and  _585
REMARK  243  A    between atoms: _584  and  _587
REMARK  244  A    between atoms: _587  and  _588
REMARK  245  A    between atoms: _590  and  _592
REMARK  246  A    between atoms: _592  and  _593
REMARK  247  A    between atoms: _592  and  _595
REMARK  248  A    between atoms: _598  and  _600
REMARK  249  A    between atoms: _600  and  _601
REMARK  250  A    between atoms: _600  and  _603
REMARK  251  A    between atoms: _603  and  _604
REMARK  252  A    between atoms: _604  and  _605
REMARK  253  A    between atoms: _610  and  _612
REMARK  254  A    between atoms: _612  and  _613
REMARK  255  A    between atoms: _612  and  _615
REMARK  256  A    between atoms: _619  and  _620
REMARK  257  A    between atoms: _625  and  _627
REMARK  258  A    between atoms: _627  and  _628
REMARK  259  A    between atoms: _627  and  _630
REMARK  260  A    between atoms: _630  and  _631
REMARK                            x       y       z     vdW  Elec       q    Type
REMARK                         _______ _______ _______ _____ _____    ______ ____
ROOT
ATOM      1  C   GLU A   7      33.891   7.555   2.802  0.00  0.00    +0.241 C 
ATOM      2  O   GLU A   7      34.056   8.365   3.710  0.00  0.00    -0.273 OA
ATOM      3  N   LEU A   8      32.747   7.445   2.134  0.00  0.00    -0.297 N 
ATOM      4  H   LEU A   8      32.667   6.750   1.365  0.00  0.00    +0.150 HD
ENDROOT
BRANCH   1   5
ATOM      5  CA  GLU A   7      35.015   6.616   2.387  0.00  0.00    +0.149 C 
BRANCH   5   8
ATOM      6  C   ASN A   6      33.936   4.571   3.177  0.00  0.00    +0.241 C 
ATOM      7  O   ASN A   6      33.816   4.999   4.327  0.00  0.00    -0.273 OA
ATOM      8  N   GLU A   7      34.499   5.265   2.192  0.00  0.00    -0.297 N 
ATOM      9  H   GLU A   7      34.574   4.830   1.250  0.00  0.00    +0.150 HD
BRANCH   6  10
ATOM     10  CA  ASN A   6      33.439   3.178   2.818  0.00  0.00    +0.158 C 
BRANCH  10  13
ATOM     11  C   LEU A   5      31.503   3.902   1.524  0.00  0.00    +0.241 C 
ATOM     12  O   LEU A   5      31.066   4.550   2.469  0.00  0.00    -0.273 OA
ATOM     13  N   ASN A   6      32.637   3.206   1.593  0.00  0.00    -0.297 N 
ATOM     14  H   ASN A   6      32.959   2.672   0.761  0.00  0.00    +0.150 HD
BRANCH  11  15
ATOM     15  CA  LEU A   5      30.756   3.875   0.188  0.00  0.00    +0.149 C 
BRANCH  15  18
ATOM     16  C   SER A   4      32.447   5.100  -1.005  0.00  0.00    +0.243 C 
ATOM     17  O   SER A   4      32.267   6.074  -0.279  0.00  0.00    -0.273 OA
ATOM     18  N   LEU A   5      31.740   3.984  -0.880  0.00  0.00    -0.297 N 
ATOM     19  H   LEU A   5      31.887   3.193  -1.540  0.00  0.00    +0.150 HD
BRANCH  16  20
ATOM     20  CA  SER A   4      33.493   5.138  -2.111  0.00  0.00    +0.178 C 
BRANCH  20  23
ATOM     21  C   SER A   3      34.979   3.380  -1.339  0.00  0.00    +0.243 C 
ATOM     22  O   SER A   3      35.267   4.009  -0.322  0.00  0.00    -0.273 OA
ATOM     23  N   SER A   4      34.138   3.841  -2.259  0.00  0.00    -0.295 N 
ATOM     24  H   SER A   4      33.937   3.264  -3.101  0.00  0.00    +0.150 HD
BRANCH  21  25
ATOM     25  CA  SER A   3      35.573   1.997  -1.596  0.00  0.00    +0.178 C 
BRANCH  25  28
ATOM     26  C   LEU A   2      33.452   0.861  -1.493  0.00  0.00    +0.241 C 
ATOM     27  O   LEU A   2      33.282   1.270  -0.344  0.00  0.00    -0.273 OA
ATOM     28  N   SER A   3      34.547   1.150  -2.190  0.00  0.00    -0.295 N 
ATOM     29  H   SER A   3      34.670   0.774  -3.152  0.00  0.00    +0.150 HD
BRANCH  26  30
ATOM     30  CA  LEU A   2      32.390  -0.004  -2.174  0.00  0.00    +0.149 C 
BRANCH  30  33
ATOM     31  C   LEU A   1      31.710   1.414  -4.018  0.00  0.00    +0.238 C 
ATOM     32  O   LEU A   1      31.282   2.267  -3.244  0.00  0.00    -0.274 OA
ATOM     33  N   LEU A   2      32.262   0.278  -3.601  0.00  0.00    -0.297 N 
ATOM     34  H   LEU A   2      32.605  -0.415  -4.297  0.00  0.00    +0.150 HD
BRANCH  31  35
ATOM     35  CA  LEU A   1      31.617   1.626  -5.528  0.00  0.00    +0.145 C 
BRANCH  35  36
ATOM     36  N   LEU A   1      32.855   1.254  -6.202  0.00  0.00    -0.238 NA
ATOM     37  H   LEU A   1      32.845   0.486  -6.903  0.00  0.00    +0.142 HD
ENDBRANCH  35  36
BRANCH  35  38
ATOM     38  CB  LEU A   1      30.437   0.820  -6.085  0.00  0.00    +0.026 C 
BRANCH  38  39
ATOM     39  CG  LEU A   1      29.938   1.187  -7.491  0.00  0.00    +0.002 C 
ATOM     40  CD2 LEU A   1      29.459   2.641  -7.526  0.00  0.00    +0.000 C 
ATOM     41  CD1 LEU A   1      28.806   0.246  -7.873  0.00  0.00    +0.000 C 
ENDBRANCH  38  39
ENDBRANCH  35  38
ENDBRANCH  31  35
ENDBRANCH  30  33
BRANCH  30  42
ATOM     42  CB  LEU A   2      32.673  -1.497  -1.946  0.00  0.00    +0.029 C 
BRANCH  42  43
ATOM     43  CG  LEU A   2      31.430  -2.363  -1.685  0.00  0.00    +0.002 C 
ATOM     44  CD2 LEU A   2      30.802  -1.955  -0.356  0.00  0.00    +0.000 C 
ATOM     45  CD1 LEU A   2      30.419  -2.217  -2.821  0.00  0.00    +0.000 C 
ENDBRANCH  42  43
ENDBRANCH  30  42
ENDBRANCH  26  30
ENDBRANCH  25  28
BRANCH  25  46
ATOM     46  CB  SER A   3      36.788   2.108  -2.517  0.00  0.00    +0.166 C 
BRANCH  46  47
ATOM     47  OG  SER A   3      37.438   0.853  -2.621  0.00  0.00    -0.380 OA
ATOM     48  H   SER A   3      36.808   0.186  -2.993  0.00  0.00    +0.211 HD
ENDBRANCH  46  47
ENDBRANCH  25  46
ENDBRANCH  21  25
ENDBRANCH  20  23
BRANCH  20  49
ATOM     49  CB  SER A   4      32.851   5.566  -3.428  0.00  0.00    +0.166 C 
BRANCH  49  50
ATOM     50  OG  SER A   4      33.848   5.952  -4.358  0.00  0.00    -0.380 OA
ATOM     51  H   SER A   4      33.418   6.227  -5.206  0.00  0.00    +0.211 HD
ENDBRANCH  49  50
ENDBRANCH  20  49
ENDBRANCH  16  20
ENDBRANCH  15  18
BRANCH  15  52
ATOM     52  CB  LEU A   5      29.946   2.581   0.057  0.00  0.00    +0.029 C 
BRANCH  52  53
ATOM     53  CG  LEU A   5      28.783   2.618  -0.945  0.00  0.00    +0.002 C 
ATOM     54  CD2 LEU A   5      27.713   3.606  -0.472  0.00  0.00    +0.000 C 
ATOM     55  CD1 LEU A   5      28.190   1.224  -1.095  0.00  0.00    +0.000 C 
ENDBRANCH  52  53
ENDBRANCH  15  52
ENDBRANCH  11  15
ENDBRANCH  10  13
BRANCH  10  56
ATOM     56  CB  ASN A   6      34.646   2.249   2.672  0.00  0.00    +0.114 C 
BRANCH  56  57
ATOM     57  CG  ASN A   6      34.258   0.788   2.657  0.00  0.00    +0.222 C 
ATOM     58  OD1 ASN A   6      33.150   0.421   3.053  0.00  0.00    -0.275 OA
ATOM     59  ND2 ASN A   6      35.177  -0.059   2.217  0.00  0.00    -0.329 N 
ATOM     60 HD21 ASN A   6      34.976  -1.079   2.196  0.00  0.00    +0.145 HD
ATOM     61 HD22 ASN A   6      36.099   0.296   1.892  0.00  0.00    +0.145 HD
ENDBRANCH  56  57
ENDBRANCH  10  56
ENDBRANCH   6  10
ENDBRANCH   5   8
BRANCH   5  62
ATOM     62  CB  GLU A   7      35.680   7.131   1.100  0.00  0.00    +0.041 C 
BRANCH  62  63
ATOM     63  CG  GLU A   7      36.079   8.611   1.144  0.00  0.00    +0.116 C 
BRANCH  63  64
ATOM     64  CD  GLU A   7      37.222   8.913   2.109  0.00  0.00    +0.365 C 
ATOM     65  OE2 GLU A   7      37.376  10.093   2.490  0.00  0.00    -0.246 OA
ATOM     66  OE1 GLU A   7      37.975   7.985   2.476  0.00  0.00    -0.246 OA
ENDBRANCH  63  64
ENDBRANCH  62  63
ENDBRANCH   5  62
ENDBRANCH   1   5
BRANCH   3  67
ATOM     67  CA  LEU A   8      31.601   8.287   2.466  0.00  0.00    +0.149 C 
BRANCH  67  68
ATOM     68  C   LEU A   8      31.129   7.964   3.882  0.00  0.00    +0.241 C 
ATOM     69  O   LEU A   8      30.730   8.856   4.638  0.00  0.00    -0.273 OA
ATOM     70  N   GLY A   9      31.167   6.684   4.233  0.00  0.00    -0.295 N 
ATOM     71  H   GLY A   9      31.494   5.967   3.554  0.00  0.00    +0.150 HD
BRANCH  70  72
ATOM     72  CA  GLY A   9      30.752   6.286   5.566  0.00  0.00    +0.176 C 
BRANCH  72  73
ATOM     73  C   GLY A   9      31.596   6.993   6.608  0.00  0.00    +0.243 C 
ATOM     74  O   GLY A   9      31.075   7.562   7.565  0.00  0.00    -0.273 OA
ATOM     75  N   GLU A  10      32.911   6.973   6.418  0.00  0.00    -0.297 N 
ATOM     76  H   GLU A  10      33.300   6.487   5.585  0.00  0.00    +0.150 HD
BRANCH  75  77
ATOM     77  CA  GLU A  10      33.817   7.621   7.357  0.00  0.00    +0.149 C 
BRANCH  77  78
ATOM     78  C   GLU A  10      33.643   9.148   7.382  0.00  0.00    +0.241 C 
ATOM     79  O   GLU A  10      33.716   9.772   8.440  0.00  0.00    -0.273 OA
ATOM     80  N   ARG A  11      33.415   9.751   6.221  0.00  0.00    -0.297 N 
ATOM     81  H   ARG A  11      33.373   9.189   5.347  0.00  0.00    +0.150 HD
BRANCH  80  82
ATOM     82  CA  ARG A  11      33.223  11.192   6.162  0.00  0.00    +0.149 C 
BRANCH  82  83
ATOM     83  C   ARG A  11      31.972  11.585   6.936  0.00  0.00    +0.241 C 
ATOM     84  O   ARG A  11      31.961  12.602   7.640  0.00  0.00    -0.273 OA
ATOM     85  N   GLN A  12      30.922  10.775   6.824  0.00  0.00    -0.297 N 
ATOM     86  H   GLN A  12      30.982   9.932   6.218  0.00  0.00    +0.150 HD
BRANCH  85  87
ATOM     87  CA  GLN A  12      29.688  11.062   7.546  0.00  0.00    +0.149 C 
BRANCH  87  88
ATOM     88  C   GLN A  12      29.881  10.855   9.049  0.00  0.00    +0.241 C 
ATOM     89  O   GLN A  12      29.370  11.635   9.846  0.00  0.00    -0.273 OA
ATOM     90  N   LEU A  13      30.623   9.819   9.438  0.00  0.00    -0.298 N 
ATOM     91  H   LEU A  13      31.031   9.181   8.725  0.00  0.00    +0.150 HD
BRANCH  90  92
ATOM     92  CA  LEU A  13      30.869   9.570  10.862  0.00  0.00    +0.137 C 
BRANCH  92  93
ATOM     93  C   LEU A  13      31.447  10.815  11.541  0.00  0.00    +0.227 C 
ATOM     94  O   LEU A  13      31.113  11.120  12.686  0.00  0.00    -0.286 OA
ENDBRANCH  92  93
BRANCH  92  95
ATOM     95  CB  LEU A  13      31.844   8.400  11.062  0.00  0.00    +0.028 C 
BRANCH  95  96
ATOM     96  CG  LEU A  13      32.175   8.128  12.540  0.00  0.00    +0.002 C 
ATOM     97  CD2 LEU A  13      30.880   7.882  13.320  0.00  0.00    +0.000 C 
ATOM     98  CD1 LEU A  13      33.105   6.937  12.663  0.00  0.00    +0.000 C 
ENDBRANCH  95  96
ENDBRANCH  92  95
ENDBRANCH  90  92
ENDBRANCH  87  88
BRANCH  87  99
ATOM     99  CB  GLN A  12      28.531  10.197   7.028  0.00  0.00    +0.039 C 
BRANCH  99 100
ATOM    100  CG  GLN A  12      28.144  10.516   5.583  0.00  0.00    +0.087 C 
BRANCH 100 101
ATOM    101  CD  GLN A  12      26.771   9.993   5.179  0.00  0.00    +0.219 C 
ATOM    102  NE2 GLN A  12      26.000   9.510   6.150  0.00  0.00    -0.329 N 
ATOM    103 HE21 GLN A  12      26.348   9.492   7.130  0.00  0.00    +0.145 HD
ATOM    104 HE22 GLN A  12      25.049   9.150   5.929  0.00  0.00    +0.145 HD
ATOM    105  OE1 GLN A  12      26.406  10.037   4.000  0.00  0.00    -0.275 OA
ENDBRANCH 100 101
ENDBRANCH  99 100
ENDBRANCH  87  99
ENDBRANCH  85  87
ENDBRANCH  82  83
BRANCH  82 106
ATOM    106  CB  ARG A  11      33.120  11.664   4.709  0.00  0.00    +0.033 C 
BRANCH 106 107
ATOM    107  CG  ARG A  11      34.399  11.461   3.913  0.00  0.00    +0.045 C 
BRANCH 107 108
ATOM    108  CD  ARG A  11      34.294  12.060   2.517  0.00  0.00    +0.174 C 
BRANCH 108 109
ATOM    109  NE  ARG A  11      35.568  11.976   1.807  0.00  0.00    -0.265 N 
ATOM    110  HE  ARG A  11      36.321  11.398   2.233  0.00  0.00    +0.259 HD
ATOM    111  CZ  ARG A  11      35.835  12.585   0.655  0.00  0.00    +0.342 C 
ATOM    112  NH2 ARG A  11      37.032  12.447   0.093  0.00  0.00    -0.292 N 
ATOM    113 HH21 ARG A  11      37.759  11.863   0.554  0.00  0.00    +0.255 HD
ATOM    114 HH22 ARG A  11      37.242  12.923  -0.808  0.00  0.00    +0.255 HD
ATOM    115  NH1 ARG A  11      34.916  13.335   0.063  0.00  0.00    -0.292 N 
ATOM    116 HH11 ARG A  11      33.979  13.450   0.499  0.00  0.00    +0.255 HD
ATOM    117 HH12 ARG A  11      35.132  13.808  -0.838  0.00  0.00    +0.255 HD
ENDBRANCH 108 109
ENDBRANCH 107 108
ENDBRANCH 106 107
ENDBRANCH  82 106
ENDBRANCH  80  82
ENDBRANCH  77  78
BRANCH  77 118
ATOM    118  CB  GLU A  10      35.261   7.259   7.017  0.00  0.00    +0.041 C 
BRANCH 118 119
ATOM    119  CG  GLU A  10      36.243   7.630   8.105  0.00  0.00    +0.116 C 
BRANCH 119 120
ATOM    120  CD  GLU A  10      37.297   6.564   8.326  0.00  0.00    +0.365 C 
ATOM    121  OE2 GLU A  10      36.926   5.401   8.620  0.00  0.00    -0.246 OA
ATOM    122  OE1 GLU A  10      38.496   6.892   8.212  0.00  0.00    -0.246 OA
ENDBRANCH 119 120
ENDBRANCH 118 119
ENDBRANCH  77 118
ENDBRANCH  75  77
ENDBRANCH  72  73
ENDBRANCH  70  72
ENDBRANCH  67  68
BRANCH  67 123
ATOM    123  CB  LEU A   8      30.450   8.054   1.480  0.00  0.00    +0.029 C 
BRANCH 123 124
ATOM    124  CG  LEU A   8      29.179   8.844   1.809  0.00  0.00    +0.002 C 
ATOM    125  CD2 LEU A   8      29.456  10.346   1.706  0.00  0.00    +0.000 C 
ATOM    126  CD1 LEU A   8      28.064   8.434   0.855  0.00  0.00    +0.000 C 
ENDBRANCH 123 124
ENDBRANCH  67 123
ENDBRANCH   3  67
TORSDOF 55
REMARK  Name = ../refined-set-2016/3b66/3b66_pocket.pdb
REMARK  260 active torsions:
REMARK  status: ('A' for Active; 'I' for Inactive)
REMARK    1  A    between atoms: _1  and  _3
REMARK    2  A    between atoms: _3  and  _4
REMARK    3  A    between atoms: _3  and  _6
REMARK    4  A    between atoms: _9  and  _11
REMARK    5  A    between atoms: _11  and  _12
REMARK    6  A    between atoms: _15  and  _17
REMARK    7  A    between atoms: _17  and  _18
REMARK    8  A    between atoms: _17  and  _20
REMARK    9  A    between atoms: _20  and  _21
REMARK   10  A    between atoms: _24  and  _26
REMARK   11  A    between atoms: _26  and  _27
REMARK   12  A    between atoms: _26  and  _29
REMARK   13  A    between atoms: _29  and  _30
REMARK   14  A    between atoms: _33  and  _35
REMARK   15  A    between atoms: _35  and  _36
REMARK   16  A    between atoms: _35  and  _38
REMARK   17  A    between atoms: _38  and  _39
REMARK   18  A    between atoms: _41  and  _43
REMARK   19  A    between atoms: _43  and  _44
REMARK   20  A    between atoms: _43  and  _46
REMARK   21  A    between atoms: _46  and  _47
REMARK   22  A    between atoms: _49  and  _51
REMARK   23  A    between atoms: _51  and  _52
REMARK   24  A    between atoms: _51  and  _54
REMARK   25  A    between atoms: _54  and  _55
REMARK   26  A    between atoms: _58  and  _60
REMARK   27  A    between atoms: _60  and  _61
REMARK   28  A    between atoms: _60  and  _63
REMARK   29  A    between atoms: _63  and  _64
REMARK   30  A    between atoms: _69  and  _71
REMARK   31  A    between atoms: _71  and  _72
REMARK   32  A    between atoms: _71  and  _74
REMARK   33  A    between atoms: _74  and  _75
REMARK   34  A    between atoms: _75  and  _76
REMARK   35  A    between atoms: _79  and  _81
REMARK   36  A    between atoms: _81  and  _82
REMARK   37  A    between atoms: _81  and  _84
REMARK   38  A    between atoms: _84  and  _85
REMARK   39  A    between atoms: _88  and  _90
REMARK   40  A    between atoms: _90  and  _91
REMARK   41  A    between atoms: _93  and  _95
REMARK   42  A    between atoms: _95  and  _96
REMARK   43  A    between atoms: _95  and  _98
REMARK   44  A    between atoms: _98  and  _99
REMARK   45  A    between atoms: _99  and  _100
REMARK   46  A    between atoms: _103  and  _105
REMARK   47  A    between atoms: _105  and  _106
REMARK   48  A    between atoms: _105  and  _108
REMARK   49  A    between atoms: _108  and  _109
REMARK   50  A    between atoms: _109  and  _110
REMARK   51  A    between atoms: _110  and  _111
REMARK   52  A    between atoms: _120  and  _122
REMARK   53  A    between atoms: _122  and  _123
REMARK   54  A    between atoms: _122  and  _125
REMARK   55  A    between atoms: _125  and  _126
REMARK   56  A    between atoms: _126  and  _127
REMARK   57  A    between atoms: _132  and  _134
REMARK   58  A    between atoms: _134  and  _135
REMARK   59  A    between atoms: _134  and  _137
REMARK   60  A    between atoms: _137  and  _138
REMARK   61  A    between atoms: _141  and  _143
REMARK   62  A    between atoms: _143  and  _144
REMARK   63  A    between atoms: _143  and  _146
REMARK   64  A    between atoms: _146  and  _147
REMARK   65  A    between atoms: _150  and  _152
REMARK   66  A    between atoms: _152  and  _153
REMARK   67  A    between atoms: _152  and  _155
REMARK   68  A    between atoms: _155  and  _156
REMARK   69  A    between atoms: _156  and  _157
REMARK   70  A    between atoms: _162  and  _164
REMARK   71  A    between atoms: _164  and  _165
REMARK   72  A    between atoms: _164  and  _167
REMARK   73  A    between atoms: _167  and  _168
REMARK   74  A    between atoms: _173  and  _174
REMARK   75  A    between atoms: _176  and  _178
REMARK   76  A    between atoms: _178  and  _179
REMARK   77  A    between atoms: _178  and  _181
REMARK   78  A    between atoms: _181  and  _182
REMARK   79  A    between atoms: _184  and  _186
REMARK   80  A    between atoms: _186  and  _187
REMARK   81  A    between atoms: _186  and  _189
REMARK   82  A    between atoms: _189  and  _190
REMARK   83  A    between atoms: _200  and  _202
REMARK   84  A    between atoms: _202  and  _203
REMARK   85  A    between atoms: _202  and  _205
REMARK   86  A    between atoms: _205  and  _206
REMARK   87  A    between atoms: _206  and  _207
REMARK   88  A    between atoms: _209  and  _211
REMARK   89  A    between atoms: _211  and  _212
REMARK   90  A    between atoms: _214  and  _216
REMARK   91  A    between atoms: _216  and  _217
REMARK   92  A    between atoms: _216  and  _219
REMARK   93  A    between atoms: _219  and  _220
REMARK   94  A    between atoms: _223  and  _225
REMARK   95  A    between atoms: _225  and  _226
REMARK   96  A    between atoms: _225  and  _228
REMARK   97  A    between atoms: _228  and  _229
REMARK   98  A    between atoms: _229  and  _230
REMARK   99  A    between atoms: _232  and  _234
REMARK  100  A    between atoms: _234  and  _235
REMARK  101  A    between atoms: _234  and  _237
REMARK  102  A    between atoms: _240  and  _242
REMARK  103  A    between atoms: _242  and  _243
REMARK  104  A    between atoms: _242  and  _245
REMARK  105  A    between atoms: _245  and  _246
REMARK  106  A    between atoms: _252  and  _254
REMARK  107  A    between atoms: _254  and  _255
REMARK  108  A    between atoms: _258  and  _260
REMARK  109  A    between atoms: _260  and  _261
REMARK  110  A    between atoms: _260  and  _263
REMARK  111  A    between atoms: _263  and  _264
REMARK  112  A    between atoms: _264  and  _265
REMARK  113  A    between atoms: _267  and  _269
REMARK  114  A    between atoms: _269  and  _270
REMARK  115  A    between atoms: _272  and  _274
REMARK  116  A    between atoms: _274  and  _275
REMARK  117  A    between atoms: _274  and  _277
REMARK  118  A    between atoms: _277  and  _278
REMARK  119  A    between atoms: _288  and  _290
REMARK  120  A    between atoms: _290  and  _291
REMARK  121  A    between atoms: _290  and  _293
REMARK  122  A    between atoms: _293  and  _294
REMARK  123  A    between atoms: _294  and  _295
REMARK  124  A    between atoms: _295  and  _296
REMARK  125  A    between atoms: _305  and  _307
REMARK  126  A    between atoms: _307  and  _308
REMARK  127  A    between atoms: _307  and  _310
REMARK  128  A    between atoms: _310  and  _311
REMARK  129  A    between atoms: _313  and  _315
REMARK  130  A    between atoms: _315  and  _316
REMARK  131  A    between atoms: _315  and  _318
REMARK  132  A    between atoms: _318  and  _319
REMARK  133  A    between atoms: _322  and  _324
REMARK  134  A    between atoms: _324  and  _325
REMARK  135  A    between atoms: _324  and  _327
REMARK  136  A    between atoms: _327  and  _328
REMARK  137  A    between atoms: _333  and  _334
REMARK  138  A    between atoms: _336  and  _338
REMARK  139  A    between atoms: _338  and  _339
REMARK  140  A    between atoms: _338  and  _341
REMARK  141  A    between atoms: _341  and  _342
REMARK  142  A    between atoms: _348  and  _350
REMARK  143  A    between atoms: _350  and  _351
REMARK  144  A    between atoms: _354  and  _356
REMARK  145  A    between atoms: _356  and  _357
REMARK  146  A    between atoms: _356  and  _359
REMARK  147  A    between atoms: _359  and  _360
REMARK  148  A    between atoms: _363  and  _365
REMARK  149  A    between atoms: _365  and  _366
REMARK  150  A    between atoms: _365  and  _368
REMARK  151  A    between atoms: _368  and  _369
REMARK  152  A    between atoms: _371  and  _373
REMARK  153  A    between atoms: _373  and  _374
REMARK  154  A    between atoms: _373  and  _376
REMARK  155  A    between atoms: _376  and  _377
REMARK  156  A    between atoms: _377  and  _378
REMARK  157  A    between atoms: _380  and  _382
REMARK  158  A    between atoms: _382  and  _383
REMARK  159  A    between atoms: _382  and  _385
REMARK  160  A    between atoms: _385  and  _386
REMARK  161  A    between atoms: _386  and  _387
REMARK  162  A    between atoms: _392  and  _394
REMARK  163  A    between atoms: _394  and  _395
REMARK  164  A    between atoms: _394  and  _397
REMARK  165  A    between atoms: _399  and  _401
REMARK  166  A    between atoms: _401  and  _402
REMARK  167  A    between atoms: _401  and  _404
REMARK  168  A    between atoms: _404  and  _405
REMARK  169  A    between atoms: _405  and  _406
REMARK  170  A    between atoms: _408  and  _410
REMARK  171  A    between atoms: _410  and  _411
REMARK  172  A    between atoms: _410  and  _413
REMARK  173  A    between atoms: _413  and  _414
REMARK  174  A    between atoms: _417  and  _419
REMARK  175  A    between atoms: _419  and  _420
REMARK  176  A    between atoms: _423  and  _425
REMARK  177  A    between atoms: _425  and  _426
REMARK  178  A    between atoms: _425  and  _428
REMARK  179  A    between atoms: _428  and  _429
REMARK  180  A    between atoms: _432  and  _434
REMARK  181  A    between atoms: _434  and  _435
REMARK  182  A    between atoms: _434  and  _437
REMARK  183  A    between atoms: _437  and  _438
REMARK  184  A    between atoms: _443  and  _445
REMARK  185  A    between atoms: _445  and  _446
REMARK  186  A    between atoms: _445  and  _448
REMARK  187  A    between atoms: _448  and  _449
REMARK  188  A    between atoms: _455  and  _457
REMARK  189  A    between atoms: _457  and  _458
REMARK  190  A    between atoms: _457  and  _460
REMARK  191  A    between atoms: _460  and  _461
REMARK  192  A    between atoms: _464  and  _466
REMARK  193  A    between atoms: _466  and  _467
REMARK  194  A    between atoms: _466  and  _469
REMARK  195  A    between atoms: _469  and  _470
REMARK  196  A    between atoms: _476  and  _478
REMARK  197  A    between atoms: _478  and  _479
REMARK  198  A    between atoms: _478  and  _481
REMARK  199  A    between atoms: _481  and  _482
REMARK  200  A    between atoms: _485  and  _487
REMARK  201  A    between atoms: _487  and  _488
REMARK  202  A    between atoms: _487  and  _490
REMARK  203  A    between atoms: _490  and  _491
REMARK  204  A    between atoms: _494  and  _496
REMARK  205  A    between atoms: _496  and  _497
REMARK  206  A    between atoms: _496  and  _499
REMARK  207  A    between atoms: _502  and  _504
REMARK  208  A    between atoms: _504  and  _505
REMARK  209  A    between atoms: _504  and  _507
REMARK  210  A    between atoms: _507  and  _508
REMARK  211  A    between atoms: _511  and  _513
REMARK  212  A    between atoms: _513  and  _514
REMARK  213  A    between atoms: _513  and  _516
REMARK  214  A    between atoms: _516  and  _517
REMARK  215  A    between atoms: _524  and  _525
REMARK  216  A    between atoms: _530  and  _532
REMARK  217  A    between atoms: _532  and  _533
REMARK  218  A    between atoms: _532  and  _535
REMARK  219  A    between atoms: _535  and  _536
REMARK  220  A    between atoms: _536  and  _537
REMARK  221  A    between atoms: _539  and  _541
REMARK  222  A    between atoms: _541  and  _542
REMARK  223  A    between atoms: _541  and  _544
REMARK  224  A    between atoms: _544  and  _545
REMARK  225  A    between atoms: _545  and  _546
REMARK  226  A    between atoms: _548  and  _550
REMARK  227  A    between atoms: _550  and  _551
REMARK  228  A    between atoms: _554  and  _556
REMARK  229  A    between atoms: _556  and  _557
REMARK  230  A    between atoms: _556  and  _559
REMARK  231  A    between atoms: _559  and  _560
REMARK  232  A    between atoms: _560  and  _561
REMARK  233  A    between atoms: _564  and  _566
REMARK  234  A    between atoms: _566  and  _567
REMARK  235  A    between atoms: _566  and  _569
REMARK  236  A    between atoms: _569  and  _570
REMARK  237  A    between atoms: _573  and  _575
REMARK  238  A    between atoms: _575  and  _576
REMARK  239  A    between atoms: _575  and  _578
REMARK  240  A    between atoms: _578  and  _579
REMARK  241  A    between atoms: _582  and  _584
REMARK  242  A    between atoms: _584  and  _585
REMARK  243  A    between atoms: _584  and  _587
REMARK  244  A    between atoms: _587  and  _588
REMARK  245  A    between atoms: _590  and  _592
REMARK  246  A    between atoms: _592  and  _593
REMARK  247  A    between atoms: _592  and  _595
REMARK  248  A    between atoms: _598  and  _600
REMARK  249  A    between atoms: _600  and  _601
REMARK  250  A    between atoms: _600  and  _603
REMARK  251  A    between atoms: _603  and  _604
REMARK  252  A    between atoms: _604  and  _605
REMARK  253  A    between atoms: _610  and  _612
REMARK  254  A    between atoms: _612  and  _613
REMARK  255  A    between atoms: _612  and  _615
REMARK  256  A    between atoms: _619  and  _620
REMARK  257  A    between atoms: _625  and  _627
REMARK  258  A    between atoms: _627  and  _628
REMARK  259  A    between atoms: _627  and  _630
REMARK  260  A    between atoms: _630  and  _631
REMARK                            x       y       z     vdW  Elec       q    Type
REMARK                         _______ _______ _______ _____ _____    ______ ____
ROOT
ATOM      1  CA  MET A   9      23.026   7.130   8.027  0.00  0.00    +0.149 C 
ENDROOT
BRANCH   1   4
ATOM      2  C   LEU A   8      21.743   7.404  10.056  0.00  0.00    +0.241 C 
ATOM      3  O   LEU A   8      21.000   8.220   9.506  0.00  0.00    -0.273 OA
ATOM      4  N   MET A   9      22.755   6.818   9.422  0.00  0.00    -0.297 N 
ATOM      5  H   MET A   9      23.355   6.134   9.926  0.00  0.00    +0.150 HD
BRANCH   2   6
ATOM      6  CA  LEU A   8      21.536   7.023  11.518  0.00  0.00    +0.149 C 
BRANCH   6   8
ATOM      7  C   GLY A   7      20.875   4.732  11.064  0.00  0.00    +0.243 C 
ATOM      8  N   LEU A   8      21.677   5.581  11.694  0.00  0.00    -0.297 N 
ATOM      9  H   LEU A   8      22.418   5.213  12.324  0.00  0.00    +0.150 HD
ATOM     10  O   GLY A   7      19.968   5.105  10.319  0.00  0.00    -0.273 OA
BRANCH   7  11
ATOM     11  CA  GLY A   7      21.125   3.253  11.313  0.00  0.00    +0.176 C 
BRANCH  11  13
ATOM     12  C   MET A   6      23.290   3.118  10.243  0.00  0.00    +0.241 C 
ATOM     13  N   GLY A   7      22.529   2.886  11.308  0.00  0.00    -0.295 N 
ATOM     14  H   GLY A   7      22.945   2.436  12.148  0.00  0.00    +0.150 HD
ATOM     15  O   MET A   6      22.861   3.644   9.215  0.00  0.00    -0.273 OA
BRANCH  12  16
ATOM     16  CA  MET A   6      24.756   2.686  10.342  0.00  0.00    +0.149 C 
BRANCH  16  18
ATOM     17  C   TRP A   5      25.493   4.504  11.780  0.00  0.00    +0.241 C 
ATOM     18  N   MET A   6      25.403   3.198  11.551  0.00  0.00    -0.297 N 
ATOM     19  H   MET A   6      25.799   2.529  12.242  0.00  0.00    +0.150 HD
ATOM     20  O   TRP A   5      25.015   5.343  11.014  0.00  0.00    -0.273 OA
BRANCH  17  21
ATOM     21  CA  TRP A   5      26.212   4.946  13.062  0.00  0.00    +0.153 C 
BRANCH  21  23
ATOM     22  C   SER A   4      24.351   4.368  14.531  0.00  0.00    +0.243 C 
ATOM     23  N   TRP A   5      25.654   4.425  14.304  0.00  0.00    -0.297 N 
ATOM     24  H   TRP A   5      26.305   4.085  15.040  0.00  0.00    +0.150 HD
ATOM     25  O   SER A   4      23.507   4.719  13.705  0.00  0.00    -0.273 OA
BRANCH  22  26
ATOM     26  CA  SER A   4      23.925   3.831  15.891  0.00  0.00    +0.178 C 
BRANCH  26  28
ATOM     27  C   TYR A   3      25.285   1.918  16.551  0.00  0.00    +0.241 C 
ATOM     28  N   SER A   4      24.958   3.200  16.706  0.00  0.00    -0.295 N 
ATOM     29  H   SER A   4      25.451   3.765  17.426  0.00  0.00    +0.150 HD
ATOM     30  O   TYR A   3      24.766   1.196  15.698  0.00  0.00    -0.273 OA
BRANCH  27  31
ATOM     31  CA  TYR A   3      26.359   1.365  17.492  0.00  0.00    +0.153 C 
BRANCH  31  33
ATOM     32  C   GLN A   2      28.220   2.708  16.719  0.00  0.00    +0.241 C 
ATOM     33  N   TYR A   3      27.423   2.346  17.721  0.00  0.00    -0.297 N 
ATOM     34  H   TYR A   3      27.555   2.759  18.666  0.00  0.00    +0.150 HD
ATOM     35  O   GLN A   2      28.093   2.248  15.585  0.00  0.00    -0.273 OA
BRANCH  32  36
ATOM     36  CA  GLN A   2      29.303   3.753  17.005  0.00  0.00    +0.149 C 
BRANCH  36  38
ATOM     37  C   ILE A   1      27.879   5.678  17.398  0.00  0.00    +0.238 C 
ATOM     38  N   GLN A   2      28.818   4.845  17.835  0.00  0.00    -0.297 N 
ATOM     39  H   GLN A   2      29.213   4.976  18.788  0.00  0.00    +0.150 HD
ATOM     40  O   ILE A   1      27.353   5.573  16.288  0.00  0.00    -0.274 OA
BRANCH  37  41
ATOM     41  CA  ILE A   1      27.462   6.787  18.358  0.00  0.00    +0.145 C 
BRANCH  41  42
ATOM     42  CB  ILE A   1      28.563   7.875  18.382  0.00  0.00    +0.025 C 
ATOM     43  CG2 ILE A   1      28.929   8.293  16.956  0.00  0.00    +0.002 C 
BRANCH  42  44
ATOM     44  CG1 ILE A   1      28.066   9.080  19.184  0.00  0.00    +0.002 C 
ATOM     45  CD1 ILE A   1      29.105  10.149  19.398  0.00  0.00    +0.000 C 
ENDBRANCH  42  44
ENDBRANCH  41  42
BRANCH  41  46
ATOM     46  N   ILE A   1      27.247   6.234  19.688  0.00  0.00    -0.238 NA
ATOM     47  H   ILE A   1      27.871   6.524  20.468  0.00  0.00    +0.142 HD
ENDBRANCH  41  46
ENDBRANCH  37  41
ENDBRANCH  36  38
BRANCH  36  48
ATOM     48  CB  GLN A   2      30.544   3.118  17.648  0.00  0.00    +0.039 C 
BRANCH  48  49
ATOM     49  CG  GLN A   2      31.689   4.129  17.827  0.00  0.00    +0.087 C 
BRANCH  49  50
ATOM     50  CD  GLN A   2      32.998   3.505  18.283  0.00  0.00    +0.219 C 
ATOM     51  OE1 GLN A   2      33.014   2.487  18.976  0.00  0.00    -0.275 OA
ATOM     52  NE2 GLN A   2      34.108   4.136  17.917  0.00  0.00    -0.329 N 
ATOM     53 HE21 GLN A   2      35.035   3.773  18.216  0.00  0.00    +0.145 HD
ATOM     54 HE22 GLN A   2      34.050   4.993  17.331  0.00  0.00    +0.145 HD
ENDBRANCH  49  50
ENDBRANCH  48  49
ENDBRANCH  36  48
ENDBRANCH  32  36
ENDBRANCH  31  33
BRANCH  31  55
ATOM     55  CB  TYR A   3      25.671   0.951  18.800  0.00  0.00    +0.055 C 
BRANCH  55  56
ATOM     56  CG  TYR A   3      26.564   0.324  19.850  0.00  0.00    -0.020 A 
ATOM     57  CD2 TYR A   3      26.377   0.611  21.200  0.00  0.00    -0.001 A 
ATOM     58  CE2 TYR A   3      27.168   0.018  22.179  0.00  0.00    +0.036 A 
ATOM     59  CZ  TYR A   3      28.163  -0.871  21.811  0.00  0.00    +0.134 A 
ATOM     60  CE1 TYR A   3      28.374  -1.176  20.475  0.00  0.00    +0.036 A 
ATOM     61  CD1 TYR A   3      27.571  -0.577  19.500  0.00  0.00    -0.001 A 
BRANCH  59  62
ATOM     62  OH  TYR A   3      28.942  -1.454  22.783  0.00  0.00    -0.506 OA
ATOM     63  HH  TYR A   3      29.601  -2.059  22.358  0.00  0.00    +0.292 HD
ENDBRANCH  59  62
ENDBRANCH  55  56
ENDBRANCH  31  55
ENDBRANCH  27  31
ENDBRANCH  26  28
BRANCH  26  64
ATOM     64  CB  SER A   4      23.270   4.960  16.683  0.00  0.00    +0.166 C 
BRANCH  64  65
ATOM     65  OG  SER A   4      22.446   4.417  17.696  0.00  0.00    -0.380 OA
ATOM     66  H   SER A   4      21.743   3.855  17.283  0.00  0.00    +0.211 HD
ENDBRANCH  64  65
ENDBRANCH  26  64
ENDBRANCH  22  26
ENDBRANCH  21  23
BRANCH  21  67
ATOM     67  CB  TRP A   5      27.698   4.575  13.013  0.00  0.00    +0.057 C 
BRANCH  67  68
ATOM     68  CG  TRP A   5      28.472   5.040  11.817  0.00  0.00    -0.002 A 
ATOM     69  CD2 TRP A   5      29.761   4.563  11.409  0.00  0.00    +0.013 A 
ATOM     70  CE3 TRP A   5      30.633   3.581  11.901  0.00  0.00    +0.001 A 
ATOM     71  CZ3 TRP A   5      31.842   3.369  11.244  0.00  0.00    +0.000 A 
ATOM     72  CH2 TRP A   5      32.193   4.120  10.108  0.00  0.00    +0.001 A 
ATOM     73  CZ2 TRP A   5      31.359   5.089   9.603  0.00  0.00    +0.017 A 
ATOM     74  CE2 TRP A   5      30.140   5.302  10.266  0.00  0.00    +0.056 A 
ATOM     75  NE1 TRP A   5      29.127   6.186   9.993  0.00  0.00    -0.352 N 
ATOM     76  HE1 TRP A   5      29.114   6.867   9.207  0.00  0.00    +0.166 HD
ATOM     77  CD1 TRP A   5      28.128   6.024  10.930  0.00  0.00    +0.068 A 
ENDBRANCH  67  68
ENDBRANCH  21  67
ENDBRANCH  17  21
ENDBRANCH  16  18
BRANCH  16  78
ATOM     78  CB  MET A   6      24.850   1.156  10.306  0.00  0.00    +0.041 C 
BRANCH  78  79
ATOM     79  CG  MET A   6      24.312   0.521   9.022  0.00  0.00    +0.060 C 
BRANCH  79  80
ATOM     80  SD  MET A   6      25.333   0.902   7.592  0.00  0.00    -0.139 S 
ATOM     81  CE  MET A   6      26.570  -0.446   7.688  0.00  0.00    +0.069 C 
ENDBRANCH  79  80
ENDBRANCH  78  79
ENDBRANCH  16  78
ENDBRANCH  12  16
ENDBRANCH  11  13
ENDBRANCH   7  11
ENDBRANCH   6   8
BRANCH   6  82
ATOM     82  CB  LEU A   8      22.551   7.763  12.393  0.00  0.00    +0.029 C 
BRANCH  82  83
ATOM     83  CG  LEU A   8      22.273   7.744  13.896  0.00  0.00    +0.002 C 
ATOM     84  CD2 LEU A   8      23.544   8.141  14.658  0.00  0.00    +0.000 C 
ATOM     85  CD1 LEU A   8      21.111   8.684  14.204  0.00  0.00    +0.000 C 
ENDBRANCH  82  83
ENDBRANCH   6  82
ENDBRANCH   2   6
ENDBRANCH   1   4
BRANCH   1  86
ATOM     86  C   MET A   9      21.906   6.633   7.122  0.00  0.00    +0.241 C 
ATOM     87  N   VAL A  10      21.382   5.448   7.427  0.00  0.00    -0.297 N 
ATOM     88  H   VAL A  10      21.760   4.925   8.243  0.00  0.00    +0.150 HD
ATOM     89  O   MET A   9      21.526   7.312   6.167  0.00  0.00    -0.273 OA
BRANCH  87  90
ATOM     90  CA  VAL A  10      20.294   4.860   6.652  0.00  0.00    +0.149 C 
BRANCH  90  91
ATOM     91  C   VAL A  10      19.073   5.778   6.660  0.00  0.00    +0.241 C 
ATOM     92  N   PHE A  11      18.707   6.250   7.845  0.00  0.00    -0.297 N 
ATOM     93  H   PHE A  11      19.267   6.002   8.686  0.00  0.00    +0.150 HD
ATOM     94  O   VAL A  10      18.481   6.062   5.616  0.00  0.00    -0.273 OA
BRANCH  92  95
ATOM     95  CA  PHE A  11      17.537   7.109   7.996  0.00  0.00    +0.153 C 
BRANCH  95  96
ATOM     96  C   PHE A  11      17.673   8.431   7.241  0.00  0.00    +0.241 C 
ATOM     97  N   ALA A  12      18.826   9.080   7.382  0.00  0.00    -0.297 N 
ATOM     98  H   ALA A  12      19.570   8.672   7.983  0.00  0.00    +0.150 HD
ATOM     99  O   PHE A  11      16.754   8.846   6.536  0.00  0.00    -0.273 OA
BRANCH  97 100
ATOM    100  CA  ALA A  12      19.068  10.351   6.712  0.00  0.00    +0.149 C 
ATOM    101  CB  ALA A  12      20.348  10.989   7.247  0.00  0.00    +0.031 C 
BRANCH 100 102
ATOM    102  C   ALA A  12      19.166  10.154   5.206  0.00  0.00    +0.241 C 
ATOM    103  N   MET A  13      19.754   9.035   4.785  0.00  0.00    -0.297 N 
ATOM    104  H   MET A  13      20.121   8.350   5.477  0.00  0.00    +0.150 HD
ATOM    105  O   ALA A  12      18.707  10.992   4.430  0.00  0.00    -0.273 OA
BRANCH 103 106
ATOM    106  CA  MET A  13      19.885   8.767   3.357  0.00  0.00    +0.149 C 
BRANCH 106 107
ATOM    107  C   MET A  13      18.494   8.587   2.744  0.00  0.00    +0.241 C 
ATOM    108  N   GLY A  14      17.612   7.886   3.455  0.00  0.00    -0.295 N 
ATOM    109  H   GLY A  14      17.893   7.477   4.369  0.00  0.00    +0.150 HD
ATOM    110  O   MET A  13      18.222   9.090   1.654  0.00  0.00    -0.273 OA
BRANCH 108 111
ATOM    111  CA  GLY A  14      16.257   7.688   2.961  0.00  0.00    +0.176 C 
BRANCH 111 112
ATOM    112  C   GLY A  14      15.518   9.012   2.811  0.00  0.00    +0.243 C 
ATOM    113  N   TRP A  15      15.751   9.933   3.741  0.00  0.00    -0.297 N 
ATOM    114  H   TRP A  15      16.403   9.716   4.522  0.00  0.00    +0.150 HD
ATOM    115  O   GLY A  14      14.745   9.202   1.869  0.00  0.00    -0.273 OA
BRANCH 113 116
ATOM    116  CA  TRP A  15      15.109  11.243   3.687  0.00  0.00    +0.153 C 
BRANCH 116 117
ATOM    117  C   TRP A  15      15.633  12.026   2.493  0.00  0.00    +0.241 C 
ATOM    118  N   ARG A  16      16.946  11.975   2.273  0.00  0.00    -0.297 N 
ATOM    119  H   ARG A  16      17.549  11.422   2.915  0.00  0.00    +0.150 HD
ATOM    120  O   TRP A  15      14.865  12.667   1.785  0.00  0.00    -0.273 OA
BRANCH 118 121
ATOM    121  CA  ARG A  16      17.557  12.683   1.145  0.00  0.00    +0.149 C 
BRANCH 121 122
ATOM    122  C   ARG A  16      17.049  12.151  -0.186  0.00  0.00    +0.241 C 
ATOM    123  N   SER A  17      16.840  10.838  -0.257  0.00  0.00    -0.296 N 
ATOM    124  H   SER A  17      17.024  10.248   0.579  0.00  0.00    +0.150 HD
ATOM    125  O   ARG A  16      16.863  12.917  -1.135  0.00  0.00    -0.273 OA
BRANCH 123 126
ATOM    126  CA  SER A  17      16.358  10.209  -1.482  0.00  0.00    +0.166 C 
BRANCH 126 127
ATOM    127  C   SER A  17      14.942  10.678  -1.781  0.00  0.00    +0.229 C 
ATOM    128  O   SER A  17      14.589  10.917  -2.935  0.00  0.00    -0.286 OA
ENDBRANCH 126 127
BRANCH 126 129
ATOM    129  CB  SER A  17      16.378   8.684  -1.344  0.00  0.00    +0.165 C 
BRANCH 129 130
ATOM    130  OG  SER A  17      17.700   8.211  -1.126  0.00  0.00    -0.380 OA
ATOM    131  H   SER A  17      18.059   8.611  -0.295  0.00  0.00    +0.211 HD
ENDBRANCH 129 130
ENDBRANCH 126 129
ENDBRANCH 123 126
ENDBRANCH 121 122
BRANCH 121 132
ATOM    132  CB  ARG A  16      19.082  12.543   1.160  0.00  0.00    +0.033 C 
BRANCH 132 133
ATOM    133  CG  ARG A  16      19.789  13.335   2.235  0.00  0.00    +0.045 C 
BRANCH 133 134
ATOM    134  CD  ARG A  16      21.284  13.427   1.933  0.00  0.00    +0.174 C 
BRANCH 134 135
ATOM    135  NE  ARG A  16      21.945  12.121   1.923  0.00  0.00    -0.265 N 
ATOM    136  CZ  ARG A  16      22.354  11.477   3.015  0.00  0.00    +0.342 C 
ATOM    137  NH2 ARG A  16      22.174  12.013   4.213  0.00  0.00    -0.292 N 
ATOM    138 HH21 ARG A  16      22.495  11.507   5.063  0.00  0.00    +0.255 HD
ATOM    139 HH22 ARG A  16      21.712  12.940   4.304  0.00  0.00    +0.255 HD
ATOM    140  NH1 ARG A  16      22.950  10.297   2.908  0.00  0.00    -0.292 N 
ATOM    141 HH11 ARG A  16      23.269   9.796   3.762  0.00  0.00    +0.255 HD
ATOM    142 HH12 ARG A  16      23.099   9.873   1.970  0.00  0.00    +0.255 HD
ATOM    143  HE  ARG A  16      22.106  11.666   1.002  0.00  0.00    +0.259 HD
ENDBRANCH 134 135
ENDBRANCH 133 134
ENDBRANCH 132 133
ENDBRANCH 121 132
ENDBRANCH 118 121
ENDBRANCH 116 117
BRANCH 116 144
ATOM    144  CB  TRP A  15      15.379  12.024   4.977  0.00  0.00    +0.057 C 
BRANCH 144 145
ATOM    145  CG  TRP A  15      14.886  13.445   4.955  0.00  0.00    -0.002 A 
ATOM    146  CD2 TRP A  15      13.539  13.891   5.157  0.00  0.00    +0.013 A 
ATOM    147  CE3 TRP A  15      12.322  13.236   5.398  0.00  0.00    +0.001 A 
ATOM    148  CZ3 TRP A  15      11.169  14.002   5.553  0.00  0.00    +0.000 A 
ATOM    149  CH2 TRP A  15      11.213  15.406   5.471  0.00  0.00    +0.001 A 
ATOM    150  CZ2 TRP A  15      12.392  16.073   5.236  0.00  0.00    +0.017 A 
ATOM    151  CE2 TRP A  15      13.550  15.301   5.080  0.00  0.00    +0.056 A 
ATOM    152  NE1 TRP A  15      14.843  15.688   4.839  0.00  0.00    -0.352 N 
ATOM    153  HE1 TRP A  15      15.170  16.669   4.731  0.00  0.00    +0.166 HD
ATOM    154  CD1 TRP A  15      15.637  14.569   4.763  0.00  0.00    +0.068 A 
ENDBRANCH 144 145
ENDBRANCH 116 144
ENDBRANCH 113 116
ENDBRANCH 111 112
ENDBRANCH 108 111
ENDBRANCH 106 107
BRANCH 106 155
ATOM    155  CB  MET A  13      20.761   7.525   3.127  0.00  0.00    +0.041 C 
BRANCH 155 156
ATOM    156  CG  MET A  13      21.211   7.325   1.674  0.00  0.00    +0.060 C 
BRANCH 156 157
ATOM    157  SD  MET A  13      19.968   6.509   0.656  0.00  0.00    -0.139 S 
ATOM    158  CE  MET A  13      20.276   4.785   1.073  0.00  0.00    +0.069 C 
ENDBRANCH 156 157
ENDBRANCH 155 156
ENDBRANCH 106 155
ENDBRANCH 103 106
ENDBRANCH 100 102
ENDBRANCH  97 100
ENDBRANCH  95  96
BRANCH  95 159
ATOM    159  CB  PHE A  11      17.291   7.385   9.478  0.00  0.00    +0.055 C 
BRANCH 159 160
ATOM    160  CG  PHE A  11      15.905   7.871   9.785  0.00  0.00    -0.020 A 
ATOM    161  CD2 PHE A  11      15.708   9.092  10.424  0.00  0.00    -0.004 A 
ATOM    162  CE2 PHE A  11      14.422   9.528  10.751  0.00  0.00    -0.000 A 
ATOM    163  CZ  PHE A  11      13.320   8.734  10.433  0.00  0.00    -0.000 A 
ATOM    164  CE1 PHE A  11      13.508   7.515   9.791  0.00  0.00    -0.000 A 
ATOM    165  CD1 PHE A  11      14.799   7.092   9.470  0.00  0.00    -0.004 A 
ENDBRANCH 159 160
ENDBRANCH  95 159
ENDBRANCH  92  95
ENDBRANCH  90  91
BRANCH  90 166
ATOM    166  CB  VAL A  10      19.873   3.478   7.234  0.00  0.00    +0.027 C 
ATOM    167  CG2 VAL A  10      20.947   2.432   6.936  0.00  0.00    +0.002 C 
ATOM    168  CG1 VAL A  10      18.542   3.042   6.642  0.00  0.00    +0.002 C 
ENDBRANCH  90 166
ENDBRANCH  87  90
ENDBRANCH   1  86
BRANCH   1 169
ATOM    169  CB  MET A   9      24.361   6.528   7.582  0.00  0.00    +0.041 C 
BRANCH 169 170
ATOM    170  CG  MET A   9      25.585   7.175   8.213  0.00  0.00    +0.060 C 
BRANCH 170 171
ATOM    171  SD  MET A   9      27.132   6.723   7.361  0.00  0.00    -0.139 S 
ATOM    172  CE  MET A   9      27.221   4.977   7.703  0.00  0.00    +0.069 C 
ENDBRANCH 170 171
ENDBRANCH 169 170
ENDBRANCH   1 169
TORSDOF 68
REMARK  Name = ../refined-set-2016/3b66/3b66_pocket.pdb
REMARK  260 active torsions:
REMARK  status: ('A' for Active; 'I' for Inactive)
REMARK    1  A    between atoms: _1  and  _3
REMARK    2  A    between atoms: _3  and  _4
REMARK    3  A    between atoms: _3  and  _6
REMARK    4  A    between atoms: _9  and  _11
REMARK    5  A    between atoms: _11  and  _12
REMARK    6  A    between atoms: _15  and  _17
REMARK    7  A    between atoms: _17  and  _18
REMARK    8  A    between atoms: _17  and  _20
REMARK    9  A    between atoms: _20  and  _21
REMARK   10  A    between atoms: _24  and  _26
REMARK   11  A    between atoms: _26  and  _27
REMARK   12  A    between atoms: _26  and  _29
REMARK   13  A    between atoms: _29  and  _30
REMARK   14  A    between atoms: _33  and  _35
REMARK   15  A    between atoms: _35  and  _36
REMARK   16  A    between atoms: _35  and  _38
REMARK   17  A    between atoms: _38  and  _39
REMARK   18  A    between atoms: _41  and  _43
REMARK   19  A    between atoms: _43  and  _44
REMARK   20  A    between atoms: _43  and  _46
REMARK   21  A    between atoms: _46  and  _47
REMARK   22  A    between atoms: _49  and  _51
REMARK   23  A    between atoms: _51  and  _52
REMARK   24  A    between atoms: _51  and  _54
REMARK   25  A    between atoms: _54  and  _55
REMARK   26  A    between atoms: _58  and  _60
REMARK   27  A    between atoms: _60  and  _61
REMARK   28  A    between atoms: _60  and  _63
REMARK   29  A    between atoms: _63  and  _64
REMARK   30  A    between atoms: _69  and  _71
REMARK   31  A    between atoms: _71  and  _72
REMARK   32  A    between atoms: _71  and  _74
REMARK   33  A    between atoms: _74  and  _75
REMARK   34  A    between atoms: _75  and  _76
REMARK   35  A    between atoms: _79  and  _81
REMARK   36  A    between atoms: _81  and  _82
REMARK   37  A    between atoms: _81  and  _84
REMARK   38  A    between atoms: _84  and  _85
REMARK   39  A    between atoms: _88  and  _90
REMARK   40  A    between atoms: _90  and  _91
REMARK   41  A    between atoms: _93  and  _95
REMARK   42  A    between atoms: _95  and  _96
REMARK   43  A    between atoms: _95  and  _98
REMARK   44  A    between atoms: _98  and  _99
REMARK   45  A    between atoms: _99  and  _100
REMARK   46  A    between atoms: _103  and  _105
REMARK   47  A    between atoms: _105  and  _106
REMARK   48  A    between atoms: _105  and  _108
REMARK   49  A    between atoms: _108  and  _109
REMARK   50  A    between atoms: _109  and  _110
REMARK   51  A    between atoms: _110  and  _111
REMARK   52  A    between atoms: _120  and  _122
REMARK   53  A    between atoms: _122  and  _123
REMARK   54  A    between atoms: _122  and  _125
REMARK   55  A    between atoms: _125  and  _126
REMARK   56  A    between atoms: _126  and  _127
REMARK   57  A    between atoms: _132  and  _134
REMARK   58  A    between atoms: _134  and  _135
REMARK   59  A    between atoms: _134  and  _137
REMARK   60  A    between atoms: _137  and  _138
REMARK   61  A    between atoms: _141  and  _143
REMARK   62  A    between atoms: _143  and  _144
REMARK   63  A    between atoms: _143  and  _146
REMARK   64  A    between atoms: _146  and  _147
REMARK   65  A    between atoms: _150  and  _152
REMARK   66  A    between atoms: _152  and  _153
REMARK   67  A    between atoms: _152  and  _155
REMARK   68  A    between atoms: _155  and  _156
REMARK   69  A    between atoms: _156  and  _157
REMARK   70  A    between atoms: _162  and  _164
REMARK   71  A    between atoms: _164  and  _165
REMARK   72  A    between atoms: _164  and  _167
REMARK   73  A    between atoms: _167  and  _168
REMARK   74  A    between atoms: _173  and  _174
REMARK   75  A    between atoms: _176  and  _178
REMARK   76  A    between atoms: _178  and  _179
REMARK   77  A    between atoms: _178  and  _181
REMARK   78  A    between atoms: _181  and  _182
REMARK   79  A    between atoms: _184  and  _186
REMARK   80  A    between atoms: _186  and  _187
REMARK   81  A    between atoms: _186  and  _189
REMARK   82  A    between atoms: _189  and  _190
REMARK   83  A    between atoms: _200  and  _202
REMARK   84  A    between atoms: _202  and  _203
REMARK   85  A    between atoms: _202  and  _205
REMARK   86  A    between atoms: _205  and  _206
REMARK   87  A    between atoms: _206  and  _207
REMARK   88  A    between atoms: _209  and  _211
REMARK   89  A    between atoms: _211  and  _212
REMARK   90  A    between atoms: _214  and  _216
REMARK   91  A    between atoms: _216  and  _217
REMARK   92  A    between atoms: _216  and  _219
REMARK   93  A    between atoms: _219  and  _220
REMARK   94  A    between atoms: _223  and  _225
REMARK   95  A    between atoms: _225  and  _226
REMARK   96  A    between atoms: _225  and  _228
REMARK   97  A    between atoms: _228  and  _229
REMARK   98  A    between atoms: _229  and  _230
REMARK   99  A    between atoms: _232  and  _234
REMARK  100  A    between atoms: _234  and  _235
REMARK  101  A    between atoms: _234  and  _237
REMARK  102  A    between atoms: _240  and  _242
REMARK  103  A    between atoms: _242  and  _243
REMARK  104  A    between atoms: _242  and  _245
REMARK  105  A    between atoms: _245  and  _246
REMARK  106  A    between atoms: _252  and  _254
REMARK  107  A    between atoms: _254  and  _255
REMARK  108  A    between atoms: _258  and  _260
REMARK  109  A    between atoms: _260  and  _261
REMARK  110  A    between atoms: _260  and  _263
REMARK  111  A    between atoms: _263  and  _264
REMARK  112  A    between atoms: _264  and  _265
REMARK  113  A    between atoms: _267  and  _269
REMARK  114  A    between atoms: _269  and  _270
REMARK  115  A    between atoms: _272  and  _274
REMARK  116  A    between atoms: _274  and  _275
REMARK  117  A    between atoms: _274  and  _277
REMARK  118  A    between atoms: _277  and  _278
REMARK  119  A    between atoms: _288  and  _290
REMARK  120  A    between atoms: _290  and  _291
REMARK  121  A    between atoms: _290  and  _293
REMARK  122  A    between atoms: _293  and  _294
REMARK  123  A    between atoms: _294  and  _295
REMARK  124  A    between atoms: _295  and  _296
REMARK  125  A    between atoms: _305  and  _307
REMARK  126  A    between atoms: _307  and  _308
REMARK  127  A    between atoms: _307  and  _310
REMARK  128  A    between atoms: _310  and  _311
REMARK  129  A    between atoms: _313  and  _315
REMARK  130  A    between atoms: _315  and  _316
REMARK  131  A    between atoms: _315  and  _318
REMARK  132  A    between atoms: _318  and  _319
REMARK  133  A    between atoms: _322  and  _324
REMARK  134  A    between atoms: _324  and  _325
REMARK  135  A    between atoms: _324  and  _327
REMARK  136  A    between atoms: _327  and  _328
REMARK  137  A    between atoms: _333  and  _334
REMARK  138  A    between atoms: _336  and  _338
REMARK  139  A    between atoms: _338  and  _339
REMARK  140  A    between atoms: _338  and  _341
REMARK  141  A    between atoms: _341  and  _342
REMARK  142  A    between atoms: _348  and  _350
REMARK  143  A    between atoms: _350  and  _351
REMARK  144  A    between atoms: _354  and  _356
REMARK  145  A    between atoms: _356  and  _357
REMARK  146  A    between atoms: _356  and  _359
REMARK  147  A    between atoms: _359  and  _360
REMARK  148  A    between atoms: _363  and  _365
REMARK  149  A    between atoms: _365  and  _366
REMARK  150  A    between atoms: _365  and  _368
REMARK  151  A    between atoms: _368  and  _369
REMARK  152  A    between atoms: _371  and  _373
REMARK  153  A    between atoms: _373  and  _374
REMARK  154  A    between atoms: _373  and  _376
REMARK  155  A    between atoms: _376  and  _377
REMARK  156  A    between atoms: _377  and  _378
REMARK  157  A    between atoms: _380  and  _382
REMARK  158  A    between atoms: _382  and  _383
REMARK  159  A    between atoms: _382  and  _385
REMARK  160  A    between atoms: _385  and  _386
REMARK  161  A    between atoms: _386  and  _387
REMARK  162  A    between atoms: _392  and  _394
REMARK  163  A    between atoms: _394  and  _395
REMARK  164  A    between atoms: _394  and  _397
REMARK  165  A    between atoms: _399  and  _401
REMARK  166  A    between atoms: _401  and  _402
REMARK  167  A    between atoms: _401  and  _404
REMARK  168  A    between atoms: _404  and  _405
REMARK  169  A    between atoms: _405  and  _406
REMARK  170  A    between atoms: _408  and  _410
REMARK  171  A    between atoms: _410  and  _411
REMARK  172  A    between atoms: _410  and  _413
REMARK  173  A    between atoms: _413  and  _414
REMARK  174  A    between atoms: _417  and  _419
REMARK  175  A    between atoms: _419  and  _420
REMARK  176  A    between atoms: _423  and  _425
REMARK  177  A    between atoms: _425  and  _426
REMARK  178  A    between atoms: _425  and  _428
REMARK  179  A    between atoms: _428  and  _429
REMARK  180  A    between atoms: _432  and  _434
REMARK  181  A    between atoms: _434  and  _435
REMARK  182  A    between atoms: _434  and  _437
REMARK  183  A    between atoms: _437  and  _438
REMARK  184  A    between atoms: _443  and  _445
REMARK  185  A    between atoms: _445  and  _446
REMARK  186  A    between atoms: _445  and  _448
REMARK  187  A    between atoms: _448  and  _449
REMARK  188  A    between atoms: _455  and  _457
REMARK  189  A    between atoms: _457  and  _458
REMARK  190  A    between atoms: _457  and  _460
REMARK  191  A    between atoms: _460  and  _461
REMARK  192  A    between atoms: _464  and  _466
REMARK  193  A    between atoms: _466  and  _467
REMARK  194  A    between atoms: _466  and  _469
REMARK  195  A    between atoms: _469  and  _470
REMARK  196  A    between atoms: _476  and  _478
REMARK  197  A    between atoms: _478  and  _479
REMARK  198  A    between atoms: _478  and  _481
REMARK  199  A    between atoms: _481  and  _482
REMARK  200  A    between atoms: _485  and  _487
REMARK  201  A    between atoms: _487  and  _488
REMARK  202  A    between atoms: _487  and  _490
REMARK  203  A    between atoms: _490  and  _491
REMARK  204  A    between atoms: _494  and  _496
REMARK  205  A    between atoms: _496  and  _497
REMARK  206  A    between atoms: _496  and  _499
REMARK  207  A    between atoms: _502  and  _504
REMARK  208  A    between atoms: _504  and  _505
REMARK  209  A    between atoms: _504  and  _507
REMARK  210  A    between atoms: _507  and  _508
REMARK  211  A    between atoms: _511  and  _513
REMARK  212  A    between atoms: _513  and  _514
REMARK  213  A    between atoms: _513  and  _516
REMARK  214  A    between atoms: _516  and  _517
REMARK  215  A    between atoms: _524  and  _525
REMARK  216  A    between atoms: _530  and  _532
REMARK  217  A    between atoms: _532  and  _533
REMARK  218  A    between atoms: _532  and  _535
REMARK  219  A    between atoms: _535  and  _536
REMARK  220  A    between atoms: _536  and  _537
REMARK  221  A    between atoms: _539  and  _541
REMARK  222  A    between atoms: _541  and  _542
REMARK  223  A    between atoms: _541  and  _544
REMARK  224  A    between atoms: _544  and  _545
REMARK  225  A    between atoms: _545  and  _546
REMARK  226  A    between atoms: _548  and  _550
REMARK  227  A    between atoms: _550  and  _551
REMARK  228  A    between atoms: _554  and  _556
REMARK  229  A    between atoms: _556  and  _557
REMARK  230  A    between atoms: _556  and  _559
REMARK  231  A    between atoms: _559  and  _560
REMARK  232  A    between atoms: _560  and  _561
REMARK  233  A    between atoms: _564  and  _566
REMARK  234  A    between atoms: _566  and  _567
REMARK  235  A    between atoms: _566  and  _569
REMARK  236  A    between atoms: _569  and  _570
REMARK  237  A    between atoms: _573  and  _575
REMARK  238  A    between atoms: _575  and  _576
REMARK  239  A    between atoms: _575  and  _578
REMARK  240  A    between atoms: _578  and  _579
REMARK  241  A    between atoms: _582  and  _584
REMARK  242  A    between atoms: _584  and  _585
REMARK  243  A    between atoms: _584  and  _587
REMARK  244  A    between atoms: _587  and  _588
REMARK  245  A    between atoms: _590  and  _592
REMARK  246  A    between atoms: _592  and  _593
REMARK  247  A    between atoms: _592  and  _595
REMARK  248  A    between atoms: _598  and  _600
REMARK  249  A    between atoms: _600  and  _601
REMARK  250  A    between atoms: _600  and  _603
REMARK  251  A    between atoms: _603  and  _604
REMARK  252  A    between atoms: _604  and  _605
REMARK  253  A    between atoms: _610  and  _612
REMARK  254  A    between atoms: _612  and  _613
REMARK  255  A    between atoms: _612  and  _615
REMARK  256  A    between atoms: _619  and  _620
REMARK  257  A    between atoms: _625  and  _627
REMARK  258  A    between atoms: _627  and  _628
REMARK  259  A    between atoms: _627  and  _630
REMARK  260  A    between atoms: _630  and  _631
REMARK                            x       y       z     vdW  Elec       q    Type
REMARK                         _______ _______ _______ _____ _____    ______ ____
ROOT
ATOM      1  CA  TYR A   2      20.883   9.606  -2.701  0.00  0.00    +0.153 C 
ENDROOT
BRANCH   1   3
ATOM      2  C   LEU A   1      20.233   7.379  -3.460  0.00  0.00    +0.238 C 
ATOM      3  N   TYR A   2      19.969   8.473  -2.758  0.00  0.00    -0.297 N 
ATOM      4  H   TYR A   2      19.076   8.524  -2.228  0.00  0.00    +0.150 HD
ATOM      5  O   LEU A   1      21.273   7.219  -4.099  0.00  0.00    -0.274 OA
BRANCH   2   6
ATOM      6  CA  LEU A   1      19.156   6.305  -3.441  0.00  0.00    +0.145 C 
BRANCH   6   7
ATOM      7  N   LEU A   1      18.701   6.131  -4.818  0.00  0.00    -0.238 NA
ATOM      8  H   LEU A   1      19.252   5.538  -5.471  0.00  0.00    +0.142 HD
ENDBRANCH   6   7
BRANCH   6   9
ATOM      9  CB  LEU A   1      19.735   5.002  -2.888  0.00  0.00    +0.026 C 
BRANCH   9  10
ATOM     10  CG  LEU A   1      18.808   3.789  -2.837  0.00  0.00    +0.002 C 
ATOM     11  CD2 LEU A   1      17.632   4.076  -1.908  0.00  0.00    +0.000 C 
ATOM     12  CD1 LEU A   1      19.594   2.580  -2.365  0.00  0.00    +0.000 C 
ENDBRANCH   9  10
ENDBRANCH   6   9
ENDBRANCH   2   6
ENDBRANCH   1   3
BRANCH   1  13
ATOM     13  C   TYR A   2      21.882   9.485  -1.546  0.00  0.00    +0.241 C 
ATOM     14  O   TYR A   2      21.741  10.172  -0.533  0.00  0.00    -0.273 OA
ATOM     15  N   PHE A   3      22.884   8.617  -1.686  0.00  0.00    -0.297 N 
ATOM     16  H   PHE A   3      22.955   8.044  -2.551  0.00  0.00    +0.150 HD
BRANCH  15  17
ATOM     17  CA  PHE A   3      23.887   8.465  -0.626  0.00  0.00    +0.153 C 
BRANCH  17  18
ATOM     18  C   PHE A   3      24.633   9.788  -0.460  0.00  0.00    +0.241 C 
ATOM     19  O   PHE A   3      24.961  10.209   0.655  0.00  0.00    -0.273 OA
ATOM     20  N   ALA A   4      24.902  10.429  -1.589  0.00  0.00    -0.298 N 
ATOM     21  H   ALA A   4      24.607   9.997  -2.488  0.00  0.00    +0.150 HD
BRANCH  20  22
ATOM     22  CA  ALA A   4      25.592  11.711  -1.625  0.00  0.00    +0.137 C 
ATOM     23  CB  ALA A   4      27.091  11.510  -1.388  0.00  0.00    +0.030 C 
BRANCH  22  24
ATOM     24  C   ALA A   4      25.346  12.310  -3.007  0.00  0.00    +0.227 C 
ATOM     25  O   ALA A   4      24.940  11.607  -3.931  0.00  0.00    -0.286 OA
ENDBRANCH  22  24
ENDBRANCH  20  22
ENDBRANCH  17  18
BRANCH  17  26
ATOM     26  CB  PHE A   3      24.902   7.368  -0.969  0.00  0.00    +0.055 C 
BRANCH  26  27
ATOM     27  CG  PHE A   3      24.338   5.973  -0.941  0.00  0.00    -0.020 A 
ATOM     28  CD2 PHE A   3      24.403   5.208   0.224  0.00  0.00    -0.004 A 
ATOM     29  CE2 PHE A   3      23.899   3.903   0.255  0.00  0.00    -0.000 A 
ATOM     30  CZ  PHE A   3      23.325   3.356  -0.885  0.00  0.00    -0.000 A 
ATOM     31  CE1 PHE A   3      23.252   4.114  -2.060  0.00  0.00    -0.000 A 
ATOM     32  CD1 PHE A   3      23.759   5.418  -2.079  0.00  0.00    -0.004 A 
ENDBRANCH  26  27
ENDBRANCH  17  26
ENDBRANCH  15  17
ENDBRANCH   1  13
BRANCH   1  33
ATOM     33  CB  TYR A   2      20.056  10.879  -2.534  0.00  0.00    +0.055 C 
BRANCH  33  34
ATOM     34  CG  TYR A   2      20.715  12.156  -2.988  0.00  0.00    -0.020 A 
ATOM     35  CD2 TYR A   2      21.476  12.921  -2.104  0.00  0.00    -0.001 A 
ATOM     36  CE2 TYR A   2      22.023  14.142  -2.495  0.00  0.00    +0.036 A 
ATOM     37  CZ  TYR A   2      21.809  14.609  -3.780  0.00  0.00    +0.134 A 
ATOM     38  CE1 TYR A   2      21.067  13.864  -4.684  0.00  0.00    +0.036 A 
ATOM     39  CD1 TYR A   2      20.523  12.637  -4.284  0.00  0.00    -0.001 A 
BRANCH  37  40
ATOM     40  OH  TYR A   2      22.296  15.844  -4.144  0.00  0.00    -0.506 OA
ATOM     41  HH  TYR A   2      22.059  16.026  -5.088  0.00  0.00    +0.292 HD
ENDBRANCH  37  40
ENDBRANCH  33  34
ENDBRANCH   1  33
TORSDOF 15
REMARK  Name = ../refined-set-2016/3b66/3b66_pocket.pdb
REMARK  260 active torsions:
REMARK  status: ('A' for Active; 'I' for Inactive)
REMARK    1  A    between atoms: _1  and  _3
REMARK    2  A    between atoms: _3  and  _4
REMARK    3  A    between atoms: _3  and  _6
REMARK    4  A    between atoms: _9  and  _11
REMARK    5  A    between atoms: _11  and  _12
REMARK    6  A    between atoms: _15  and  _17
REMARK    7  A    between atoms: _17  and  _18
REMARK    8  A    between atoms: _17  and  _20
REMARK    9  A    between atoms: _20  and  _21
REMARK   10  A    between atoms: _24  and  _26
REMARK   11  A    between atoms: _26  and  _27
REMARK   12  A    between atoms: _26  and  _29
REMARK   13  A    between atoms: _29  and  _30
REMARK   14  A    between atoms: _33  and  _35
REMARK   15  A    between atoms: _35  and  _36
REMARK   16  A    between atoms: _35  and  _38
REMARK   17  A    between atoms: _38  and  _39
REMARK   18  A    between atoms: _41  and  _43
REMARK   19  A    between atoms: _43  and  _44
REMARK   20  A    between atoms: _43  and  _46
REMARK   21  A    between atoms: _46  and  _47
REMARK   22  A    between atoms: _49  and  _51
REMARK   23  A    between atoms: _51  and  _52
REMARK   24  A    between atoms: _51  and  _54
REMARK   25  A    between atoms: _54  and  _55
REMARK   26  A    between atoms: _58  and  _60
REMARK   27  A    between atoms: _60  and  _61
REMARK   28  A    between atoms: _60  and  _63
REMARK   29  A    between atoms: _63  and  _64
REMARK   30  A    between atoms: _69  and  _71
REMARK   31  A    between atoms: _71  and  _72
REMARK   32  A    between atoms: _71  and  _74
REMARK   33  A    between atoms: _74  and  _75
REMARK   34  A    between atoms: _75  and  _76
REMARK   35  A    between atoms: _79  and  _81
REMARK   36  A    between atoms: _81  and  _82
REMARK   37  A    between atoms: _81  and  _84
REMARK   38  A    between atoms: _84  and  _85
REMARK   39  A    between atoms: _88  and  _90
REMARK   40  A    between atoms: _90  and  _91
REMARK   41  A    between atoms: _93  and  _95
REMARK   42  A    between atoms: _95  and  _96
REMARK   43  A    between atoms: _95  and  _98
REMARK   44  A    between atoms: _98  and  _99
REMARK   45  A    between atoms: _99  and  _100
REMARK   46  A    between atoms: _103  and  _105
REMARK   47  A    between atoms: _105  and  _106
REMARK   48  A    between atoms: _105  and  _108
REMARK   49  A    between atoms: _108  and  _109
REMARK   50  A    between atoms: _109  and  _110
REMARK   51  A    between atoms: _110  and  _111
REMARK   52  A    between atoms: _120  and  _122
REMARK   53  A    between atoms: _122  and  _123
REMARK   54  A    between atoms: _122  and  _125
REMARK   55  A    between atoms: _125  and  _126
REMARK   56  A    between atoms: _126  and  _127
REMARK   57  A    between atoms: _132  and  _134
REMARK   58  A    between atoms: _134  and  _135
REMARK   59  A    between atoms: _134  and  _137
REMARK   60  A    between atoms: _137  and  _138
REMARK   61  A    between atoms: _141  and  _143
REMARK   62  A    between atoms: _143  and  _144
REMARK   63  A    between atoms: _143  and  _146
REMARK   64  A    between atoms: _146  and  _147
REMARK   65  A    between atoms: _150  and  _152
REMARK   66  A    between atoms: _152  and  _153
REMARK   67  A    between atoms: _152  and  _155
REMARK   68  A    between atoms: _155  and  _156
REMARK   69  A    between atoms: _156  and  _157
REMARK   70  A    between atoms: _162  and  _164
REMARK   71  A    between atoms: _164  and  _165
REMARK   72  A    between atoms: _164  and  _167
REMARK   73  A    between atoms: _167  and  _168
REMARK   74  A    between atoms: _173  and  _174
REMARK   75  A    between atoms: _176  and  _178
REMARK   76  A    between atoms: _178  and  _179
REMARK   77  A    between atoms: _178  and  _181
REMARK   78  A    between atoms: _181  and  _182
REMARK   79  A    between atoms: _184  and  _186
REMARK   80  A    between atoms: _186  and  _187
REMARK   81  A    between atoms: _186  and  _189
REMARK   82  A    between atoms: _189  and  _190
REMARK   83  A    between atoms: _200  and  _202
REMARK   84  A    between atoms: _202  and  _203
REMARK   85  A    between atoms: _202  and  _205
REMARK   86  A    between atoms: _205  and  _206
REMARK   87  A    between atoms: _206  and  _207
REMARK   88  A    between atoms: _209  and  _211
REMARK   89  A    between atoms: _211  and  _212
REMARK   90  A    between atoms: _214  and  _216
REMARK   91  A    between atoms: _216  and  _217
REMARK   92  A    between atoms: _216  and  _219
REMARK   93  A    between atoms: _219  and  _220
REMARK   94  A    between atoms: _223  and  _225
REMARK   95  A    between atoms: _225  and  _226
REMARK   96  A    between atoms: _225  and  _228
REMARK   97  A    between atoms: _228  and  _229
REMARK   98  A    between atoms: _229  and  _230
REMARK   99  A    between atoms: _232  and  _234
REMARK  100  A    between atoms: _234  and  _235
REMARK  101  A    between atoms: _234  and  _237
REMARK  102  A    between atoms: _240  and  _242
REMARK  103  A    between atoms: _242  and  _243
REMARK  104  A    between atoms: _242  and  _245
REMARK  105  A    between atoms: _245  and  _246
REMARK  106  A    between atoms: _252  and  _254
REMARK  107  A    between atoms: _254  and  _255
REMARK  108  A    between atoms: _258  and  _260
REMARK  109  A    between atoms: _260  and  _261
REMARK  110  A    between atoms: _260  and  _263
REMARK  111  A    between atoms: _263  and  _264
REMARK  112  A    between atoms: _264  and  _265
REMARK  113  A    between atoms: _267  and  _269
REMARK  114  A    between atoms: _269  and  _270
REMARK  115  A    between atoms: _272  and  _274
REMARK  116  A    between atoms: _274  and  _275
REMARK  117  A    between atoms: _274  and  _277
REMARK  118  A    between atoms: _277  and  _278
REMARK  119  A    between atoms: _288  and  _290
REMARK  120  A    between atoms: _290  and  _291
REMARK  121  A    between atoms: _290  and  _293
REMARK  122  A    between atoms: _293  and  _294
REMARK  123  A    between atoms: _294  and  _295
REMARK  124  A    between atoms: _295  and  _296
REMARK  125  A    between atoms: _305  and  _307
REMARK  126  A    between atoms: _307  and  _308
REMARK  127  A    between atoms: _307  and  _310
REMARK  128  A    between atoms: _310  and  _311
REMARK  129  A    between atoms: _313  and  _315
REMARK  130  A    between atoms: _315  and  _316
REMARK  131  A    between atoms: _315  and  _318
REMARK  132  A    between atoms: _318  and  _319
REMARK  133  A    between atoms: _322  and  _324
REMARK  134  A    between atoms: _324  and  _325
REMARK  135  A    between atoms: _324  and  _327
REMARK  136  A    between atoms: _327  and  _328
REMARK  137  A    between atoms: _333  and  _334
REMARK  138  A    between atoms: _336  and  _338
REMARK  139  A    between atoms: _338  and  _339
REMARK  140  A    between atoms: _338  and  _341
REMARK  141  A    between atoms: _341  and  _342
REMARK  142  A    between atoms: _348  and  _350
REMARK  143  A    between atoms: _350  and  _351
REMARK  144  A    between atoms: _354  and  _356
REMARK  145  A    between atoms: _356  and  _357
REMARK  146  A    between atoms: _356  and  _359
REMARK  147  A    between atoms: _359  and  _360
REMARK  148  A    between atoms: _363  and  _365
REMARK  149  A    between atoms: _365  and  _366
REMARK  150  A    between atoms: _365  and  _368
REMARK  151  A    between atoms: _368  and  _369
REMARK  152  A    between atoms: _371  and  _373
REMARK  153  A    between atoms: _373  and  _374
REMARK  154  A    between atoms: _373  and  _376
REMARK  155  A    between atoms: _376  and  _377
REMARK  156  A    between atoms: _377  and  _378
REMARK  157  A    between atoms: _380  and  _382
REMARK  158  A    between atoms: _382  and  _383
REMARK  159  A    between atoms: _382  and  _385
REMARK  160  A    between atoms: _385  and  _386
REMARK  161  A    between atoms: _386  and  _387
REMARK  162  A    between atoms: _392  and  _394
REMARK  163  A    between atoms: _394  and  _395
REMARK  164  A    between atoms: _394  and  _397
REMARK  165  A    between atoms: _399  and  _401
REMARK  166  A    between atoms: _401  and  _402
REMARK  167  A    between atoms: _401  and  _404
REMARK  168  A    between atoms: _404  and  _405
REMARK  169  A    between atoms: _405  and  _406
REMARK  170  A    between atoms: _408  and  _410
REMARK  171  A    between atoms: _410  and  _411
REMARK  172  A    between atoms: _410  and  _413
REMARK  173  A    between atoms: _413  and  _414
REMARK  174  A    between atoms: _417  and  _419
REMARK  175  A    between atoms: _419  and  _420
REMARK  176  A    between atoms: _423  and  _425
REMARK  177  A    between atoms: _425  and  _426
REMARK  178  A    between atoms: _425  and  _428
REMARK  179  A    between atoms: _428  and  _429
REMARK  180  A    between atoms: _432  and  _434
REMARK  181  A    between atoms: _434  and  _435
REMARK  182  A    between atoms: _434  and  _437
REMARK  183  A    between atoms: _437  and  _438
REMARK  184  A    between atoms: _443  and  _445
REMARK  185  A    between atoms: _445  and  _446
REMARK  186  A    between atoms: _445  and  _448
REMARK  187  A    between atoms: _448  and  _449
REMARK  188  A    between atoms: _455  and  _457
REMARK  189  A    between atoms: _457  and  _458
REMARK  190  A    between atoms: _457  and  _460
REMARK  191  A    between atoms: _460  and  _461
REMARK  192  A    between atoms: _464  and  _466
REMARK  193  A    between atoms: _466  and  _467
REMARK  194  A    between atoms: _466  and  _469
REMARK  195  A    between atoms: _469  and  _470
REMARK  196  A    between atoms: _476  and  _478
REMARK  197  A    between atoms: _478  and  _479
REMARK  198  A    between atoms: _478  and  _481
REMARK  199  A    between atoms: _481  and  _482
REMARK  200  A    between atoms: _485  and  _487
REMARK  201  A    between atoms: _487  and  _488
REMARK  202  A    between atoms: _487  and  _490
REMARK  203  A    between atoms: _490  and  _491
REMARK  204  A    between atoms: _494  and  _496
REMARK  205  A    between atoms: _496  and  _497
REMARK  206  A    between atoms: _496  and  _499
REMARK  207  A    between atoms: _502  and  _504
REMARK  208  A    between atoms: _504  and  _505
REMARK  209  A    between atoms: _504  and  _507
REMARK  210  A    between atoms: _507  and  _508
REMARK  211  A    between atoms: _511  and  _513
REMARK  212  A    between atoms: _513  and  _514
REMARK  213  A    between atoms: _513  and  _516
REMARK  214  A    between atoms: _516  and  _517
REMARK  215  A    between atoms: _524  and  _525
REMARK  216  A    between atoms: _530  and  _532
REMARK  217  A    between atoms: _532  and  _533
REMARK  218  A    between atoms: _532  and  _535
REMARK  219  A    between atoms: _535  and  _536
REMARK  220  A    between atoms: _536  and  _537
REMARK  221  A    between atoms: _539  and  _541
REMARK  222  A    between atoms: _541  and  _542
REMARK  223  A    between atoms: _541  and  _544
REMARK  224  A    between atoms: _544  and  _545
REMARK  225  A    between atoms: _545  and  _546
REMARK  226  A    between atoms: _548  and  _550
REMARK  227  A    between atoms: _550  and  _551
REMARK  228  A    between atoms: _554  and  _556
REMARK  229  A    between atoms: _556  and  _557
REMARK  230  A    between atoms: _556  and  _559
REMARK  231  A    between atoms: _559  and  _560
REMARK  232  A    between atoms: _560  and  _561
REMARK  233  A    between atoms: _564  and  _566
REMARK  234  A    between atoms: _566  and  _567
REMARK  235  A    between atoms: _566  and  _569
REMARK  236  A    between atoms: _569  and  _570
REMARK  237  A    between atoms: _573  and  _575
REMARK  238  A    between atoms: _575  and  _576
REMARK  239  A    between atoms: _575  and  _578
REMARK  240  A    between atoms: _578  and  _579
REMARK  241  A    between atoms: _582  and  _584
REMARK  242  A    between atoms: _584  and  _585
REMARK  243  A    between atoms: _584  and  _587
REMARK  244  A    between atoms: _587  and  _588
REMARK  245  A    between atoms: _590  and  _592
REMARK  246  A    between atoms: _592  and  _593
REMARK  247  A    between atoms: _592  and  _595
REMARK  248  A    between atoms: _598  and  _600
REMARK  249  A    between atoms: _600  and  _601
REMARK  250  A    between atoms: _600  and  _603
REMARK  251  A    between atoms: _603  and  _604
REMARK  252  A    between atoms: _604  and  _605
REMARK  253  A    between atoms: _610  and  _612
REMARK  254  A    between atoms: _612  and  _613
REMARK  255  A    between atoms: _612  and  _615
REMARK  256  A    between atoms: _619  and  _620
REMARK  257  A    between atoms: _625  and  _627
REMARK  258  A    between atoms: _627  and  _628
REMARK  259  A    between atoms: _627  and  _630
REMARK  260  A    between atoms: _630  and  _631
REMARK                            x       y       z     vdW  Elec       q    Type
REMARK                         _______ _______ _______ _____ _____    ______ ____
ROOT
ATOM      1  CA  LEU A   1      27.036   8.880  -5.234  0.00  0.00    +0.133 C 
ENDROOT
BRANCH   1   2
ATOM      2  N   LEU A   1      27.154  10.323  -5.400  0.00  0.00    -0.239 NA
ATOM      3  H   LEU A   1      26.417  10.945  -5.011  0.00  0.00    +0.142 HD
ENDBRANCH   1   2
BRANCH   1   4
ATOM      4  C   LEU A   1      25.562   8.520  -5.139  0.00  0.00    +0.224 C 
ATOM      5  O   LEU A   1      25.047   8.206  -4.067  0.00  0.00    -0.287 OA
ENDBRANCH   1   4
BRANCH   1   6
ATOM      6  CB  LEU A   1      27.782   8.398  -3.983  0.00  0.00    +0.025 C 
BRANCH   6   7
ATOM      7  CG  LEU A   1      27.948   6.870  -3.919  0.00  0.00    +0.002 C 
ATOM      8  CD2 LEU A   1      28.517   6.461  -2.572  0.00  0.00    +0.000 C 
ATOM      9  CD1 LEU A   1      28.874   6.405  -5.051  0.00  0.00    +0.000 C 
ENDBRANCH   6   7
ENDBRANCH   1   6
TORSDOF 4
REMARK  Name = ../refined-set-2016/3b66/3b66_pocket.pdb
REMARK  260 active torsions:
REMARK  status: ('A' for Active; 'I' for Inactive)
REMARK    1  A    between atoms: _1  and  _3
REMARK    2  A    between atoms: _3  and  _4
REMARK    3  A    between atoms: _3  and  _6
REMARK    4  A    between atoms: _9  and  _11
REMARK    5  A    between atoms: _11  and  _12
REMARK    6  A    between atoms: _15  and  _17
REMARK    7  A    between atoms: _17  and  _18
REMARK    8  A    between atoms: _17  and  _20
REMARK    9  A    between atoms: _20  and  _21
REMARK   10  A    between atoms: _24  and  _26
REMARK   11  A    between atoms: _26  and  _27
REMARK   12  A    between atoms: _26  and  _29
REMARK   13  A    between atoms: _29  and  _30
REMARK   14  A    between atoms: _33  and  _35
REMARK   15  A    between atoms: _35  and  _36
REMARK   16  A    between atoms: _35  and  _38
REMARK   17  A    between atoms: _38  and  _39
REMARK   18  A    between atoms: _41  and  _43
REMARK   19  A    between atoms: _43  and  _44
REMARK   20  A    between atoms: _43  and  _46
REMARK   21  A    between atoms: _46  and  _47
REMARK   22  A    between atoms: _49  and  _51
REMARK   23  A    between atoms: _51  and  _52
REMARK   24  A    between atoms: _51  and  _54
REMARK   25  A    between atoms: _54  and  _55
REMARK   26  A    between atoms: _58  and  _60
REMARK   27  A    between atoms: _60  and  _61
REMARK   28  A    between atoms: _60  and  _63
REMARK   29  A    between atoms: _63  and  _64
REMARK   30  A    between atoms: _69  and  _71
REMARK   31  A    between atoms: _71  and  _72
REMARK   32  A    between atoms: _71  and  _74
REMARK   33  A    between atoms: _74  and  _75
REMARK   34  A    between atoms: _75  and  _76
REMARK   35  A    between atoms: _79  and  _81
REMARK   36  A    between atoms: _81  and  _82
REMARK   37  A    between atoms: _81  and  _84
REMARK   38  A    between atoms: _84  and  _85
REMARK   39  A    between atoms: _88  and  _90
REMARK   40  A    between atoms: _90  and  _91
REMARK   41  A    between atoms: _93  and  _95
REMARK   42  A    between atoms: _95  and  _96
REMARK   43  A    between atoms: _95  and  _98
REMARK   44  A    between atoms: _98  and  _99
REMARK   45  A    between atoms: _99  and  _100
REMARK   46  A    between atoms: _103  and  _105
REMARK   47  A    between atoms: _105  and  _106
REMARK   48  A    between atoms: _105  and  _108
REMARK   49  A    between atoms: _108  and  _109
REMARK   50  A    between atoms: _109  and  _110
REMARK   51  A    between atoms: _110  and  _111
REMARK   52  A    between atoms: _120  and  _122
REMARK   53  A    between atoms: _122  and  _123
REMARK   54  A    between atoms: _122  and  _125
REMARK   55  A    between atoms: _125  and  _126
REMARK   56  A    between atoms: _126  and  _127
REMARK   57  A    between atoms: _132  and  _134
REMARK   58  A    between atoms: _134  and  _135
REMARK   59  A    between atoms: _134  and  _137
REMARK   60  A    between atoms: _137  and  _138
REMARK   61  A    between atoms: _141  and  _143
REMARK   62  A    between atoms: _143  and  _144
REMARK   63  A    between atoms: _143  and  _146
REMARK   64  A    between atoms: _146  and  _147
REMARK   65  A    between atoms: _150  and  _152
REMARK   66  A    between atoms: _152  and  _153
REMARK   67  A    between atoms: _152  and  _155
REMARK   68  A    between atoms: _155  and  _156
REMARK   69  A    between atoms: _156  and  _157
REMARK   70  A    between atoms: _162  and  _164
REMARK   71  A    between atoms: _164  and  _165
REMARK   72  A    between atoms: _164  and  _167
REMARK   73  A    between atoms: _167  and  _168
REMARK   74  A    between atoms: _173  and  _174
REMARK   75  A    between atoms: _176  and  _178
REMARK   76  A    between atoms: _178  and  _179
REMARK   77  A    between atoms: _178  and  _181
REMARK   78  A    between atoms: _181  and  _182
REMARK   79  A    between atoms: _184  and  _186
REMARK   80  A    between atoms: _186  and  _187
REMARK   81  A    between atoms: _186  and  _189
REMARK   82  A    between atoms: _189  and  _190
REMARK   83  A    between atoms: _200  and  _202
REMARK   84  A    between atoms: _202  and  _203
REMARK   85  A    between atoms: _202  and  _205
REMARK   86  A    between atoms: _205  and  _206
REMARK   87  A    between atoms: _206  and  _207
REMARK   88  A    between atoms: _209  and  _211
REMARK   89  A    between atoms: _211  and  _212
REMARK   90  A    between atoms: _214  and  _216
REMARK   91  A    between atoms: _216  and  _217
REMARK   92  A    between atoms: _216  and  _219
REMARK   93  A    between atoms: _219  and  _220
REMARK   94  A    between atoms: _223  and  _225
REMARK   95  A    between atoms: _225  and  _226
REMARK   96  A    between atoms: _225  and  _228
REMARK   97  A    between atoms: _228  and  _229
REMARK   98  A    between atoms: _229  and  _230
REMARK   99  A    between atoms: _232  and  _234
REMARK  100  A    between atoms: _234  and  _235
REMARK  101  A    between atoms: _234  and  _237
REMARK  102  A    between atoms: _240  and  _242
REMARK  103  A    between atoms: _242  and  _243
REMARK  104  A    between atoms: _242  and  _245
REMARK  105  A    between atoms: _245  and  _246
REMARK  106  A    between atoms: _252  and  _254
REMARK  107  A    between atoms: _254  and  _255
REMARK  108  A    between atoms: _258  and  _260
REMARK  109  A    between atoms: _260  and  _261
REMARK  110  A    between atoms: _260  and  _263
REMARK  111  A    between atoms: _263  and  _264
REMARK  112  A    between atoms: _264  and  _265
REMARK  113  A    between atoms: _267  and  _269
REMARK  114  A    between atoms: _269  and  _270
REMARK  115  A    between atoms: _272  and  _274
REMARK  116  A    between atoms: _274  and  _275
REMARK  117  A    between atoms: _274  and  _277
REMARK  118  A    between atoms: _277  and  _278
REMARK  119  A    between atoms: _288  and  _290
REMARK  120  A    between atoms: _290  and  _291
REMARK  121  A    between atoms: _290  and  _293
REMARK  122  A    between atoms: _293  and  _294
REMARK  123  A    between atoms: _294  and  _295
REMARK  124  A    between atoms: _295  and  _296
REMARK  125  A    between atoms: _305  and  _307
REMARK  126  A    between atoms: _307  and  _308
REMARK  127  A    between atoms: _307  and  _310
REMARK  128  A    between atoms: _310  and  _311
REMARK  129  A    between atoms: _313  and  _315
REMARK  130  A    between atoms: _315  and  _316
REMARK  131  A    between atoms: _315  and  _318
REMARK  132  A    between atoms: _318  and  _319
REMARK  133  A    between atoms: _322  and  _324
REMARK  134  A    between atoms: _324  and  _325
REMARK  135  A    between atoms: _324  and  _327
REMARK  136  A    between atoms: _327  and  _328
REMARK  137  A    between atoms: _333  and  _334
REMARK  138  A    between atoms: _336  and  _338
REMARK  139  A    between atoms: _338  and  _339
REMARK  140  A    between atoms: _338  and  _341
REMARK  141  A    between atoms: _341  and  _342
REMARK  142  A    between atoms: _348  and  _350
REMARK  143  A    between atoms: _350  and  _351
REMARK  144  A    between atoms: _354  and  _356
REMARK  145  A    between atoms: _356  and  _357
REMARK  146  A    between atoms: _356  and  _359
REMARK  147  A    between atoms: _359  and  _360
REMARK  148  A    between atoms: _363  and  _365
REMARK  149  A    between atoms: _365  and  _366
REMARK  150  A    between atoms: _365  and  _368
REMARK  151  A    between atoms: _368  and  _369
REMARK  152  A    between atoms: _371  and  _373
REMARK  153  A    between atoms: _373  and  _374
REMARK  154  A    between atoms: _373  and  _376
REMARK  155  A    between atoms: _376  and  _377
REMARK  156  A    between atoms: _377  and  _378
REMARK  157  A    between atoms: _380  and  _382
REMARK  158  A    between atoms: _382  and  _383
REMARK  159  A    between atoms: _382  and  _385
REMARK  160  A    between atoms: _385  and  _386
REMARK  161  A    between atoms: _386  and  _387
REMARK  162  A    between atoms: _392  and  _394
REMARK  163  A    between atoms: _394  and  _395
REMARK  164  A    between atoms: _394  and  _397
REMARK  165  A    between atoms: _399  and  _401
REMARK  166  A    between atoms: _401  and  _402
REMARK  167  A    between atoms: _401  and  _404
REMARK  168  A    between atoms: _404  and  _405
REMARK  169  A    between atoms: _405  and  _406
REMARK  170  A    between atoms: _408  and  _410
REMARK  171  A    between atoms: _410  and  _411
REMARK  172  A    between atoms: _410  and  _413
REMARK  173  A    between atoms: _413  and  _414
REMARK  174  A    between atoms: _417  and  _419
REMARK  175  A    between atoms: _419  and  _420
REMARK  176  A    between atoms: _423  and  _425
REMARK  177  A    between atoms: _425  and  _426
REMARK  178  A    between atoms: _425  and  _428
REMARK  179  A    between atoms: _428  and  _429
REMARK  180  A    between atoms: _432  and  _434
REMARK  181  A    between atoms: _434  and  _435
REMARK  182  A    between atoms: _434  and  _437
REMARK  183  A    between atoms: _437  and  _438
REMARK  184  A    between atoms: _443  and  _445
REMARK  185  A    between atoms: _445  and  _446
REMARK  186  A    between atoms: _445  and  _448
REMARK  187  A    between atoms: _448  and  _449
REMARK  188  A    between atoms: _455  and  _457
REMARK  189  A    between atoms: _457  and  _458
REMARK  190  A    between atoms: _457  and  _460
REMARK  191  A    between atoms: _460  and  _461
REMARK  192  A    between atoms: _464  and  _466
REMARK  193  A    between atoms: _466  and  _467
REMARK  194  A    between atoms: _466  and  _469
REMARK  195  A    between atoms: _469  and  _470
REMARK  196  A    between atoms: _476  and  _478
REMARK  197  A    between atoms: _478  and  _479
REMARK  198  A    between atoms: _478  and  _481
REMARK  199  A    between atoms: _481  and  _482
REMARK  200  A    between atoms: _485  and  _487
REMARK  201  A    between atoms: _487  and  _488
REMARK  202  A    between atoms: _487  and  _490
REMARK  203  A    between atoms: _490  and  _491
REMARK  204  A    between atoms: _494  and  _496
REMARK  205  A    between atoms: _496  and  _497
REMARK  206  A    between atoms: _496  and  _499
REMARK  207  A    between atoms: _502  and  _504
REMARK  208  A    between atoms: _504  and  _505
REMARK  209  A    between atoms: _504  and  _507
REMARK  210  A    between atoms: _507  and  _508
REMARK  211  A    between atoms: _511  and  _513
REMARK  212  A    between atoms: _513  and  _514
REMARK  213  A    between atoms: _513  and  _516
REMARK  214  A    between atoms: _516  and  _517
REMARK  215  A    between atoms: _524  and  _525
REMARK  216  A    between atoms: _530  and  _532
REMARK  217  A    between atoms: _532  and  _533
REMARK  218  A    between atoms: _532  and  _535
REMARK  219  A    between atoms: _535  and  _536
REMARK  220  A    between atoms: _536  and  _537
REMARK  221  A    between atoms: _539  and  _541
REMARK  222  A    between atoms: _541  and  _542
REMARK  223  A    between atoms: _541  and  _544
REMARK  224  A    between atoms: _544  and  _545
REMARK  225  A    between atoms: _545  and  _546
REMARK  226  A    between atoms: _548  and  _550
REMARK  227  A    between atoms: _550  and  _551
REMARK  228  A    between atoms: _554  and  _556
REMARK  229  A    between atoms: _556  and  _557
REMARK  230  A    between atoms: _556  and  _559
REMARK  231  A    between atoms: _559  and  _560
REMARK  232  A    between atoms: _560  and  _561
REMARK  233  A    between atoms: _564  and  _566
REMARK  234  A    between atoms: _566  and  _567
REMARK  235  A    between atoms: _566  and  _569
REMARK  236  A    between atoms: _569  and  _570
REMARK  237  A    between atoms: _573  and  _575
REMARK  238  A    between atoms: _575  and  _576
REMARK  239  A    between atoms: _575  and  _578
REMARK  240  A    between atoms: _578  and  _579
REMARK  241  A    between atoms: _582  and  _584
REMARK  242  A    between atoms: _584  and  _585
REMARK  243  A    between atoms: _584  and  _587
REMARK  244  A    between atoms: _587  and  _588
REMARK  245  A    between atoms: _590  and  _592
REMARK  246  A    between atoms: _592  and  _593
REMARK  247  A    between atoms: _592  and  _595
REMARK  248  A    between atoms: _598  and  _600
REMARK  249  A    between atoms: _600  and  _601
REMARK  250  A    between atoms: _600  and  _603
REMARK  251  A    between atoms: _603  and  _604
REMARK  252  A    between atoms: _604  and  _605
REMARK  253  A    between atoms: _610  and  _612
REMARK  254  A    between atoms: _612  and  _613
REMARK  255  A    between atoms: _612  and  _615
REMARK  256  A    between atoms: _619  and  _620
REMARK  257  A    between atoms: _625  and  _627
REMARK  258  A    between atoms: _627  and  _628
REMARK  259  A    between atoms: _627  and  _630
REMARK  260  A    between atoms: _630  and  _631
REMARK                            x       y       z     vdW  Elec       q    Type
REMARK                         _______ _______ _______ _____ _____    ______ ____
ROOT
ATOM      1  CA  SER A   1      27.371  -3.111  -5.226  0.00  0.00    +0.163 C 
ENDROOT
BRANCH   1   2
ATOM      2  N   SER A   1      26.820  -3.248  -6.572  0.00  0.00    -0.237 NA
ATOM      3  H   SER A   1      25.933  -2.760  -6.811  0.00  0.00    +0.142 HD
ENDBRANCH   1   2
BRANCH   1   4
ATOM      4  C   SER A   1      27.193  -4.382  -4.398  0.00  0.00    +0.227 C 
ATOM      5  O   SER A   1      27.793  -4.519  -3.332  0.00  0.00    -0.287 OA
ENDBRANCH   1   4
BRANCH   1   6
ATOM      6  CB  SER A   1      26.694  -1.950  -4.501  0.00  0.00    +0.162 C 
BRANCH   6   7
ATOM      7  OG  SER A   1      25.336  -2.259  -4.237  0.00  0.00    -0.380 OA
ATOM      8  H   SER A   1      24.865  -2.426  -5.091  0.00  0.00    +0.211 HD
ENDBRANCH   6   7
ENDBRANCH   1   6
TORSDOF 4
REMARK  Name = ../refined-set-2016/3b66/3b66_pocket.pdb
REMARK  260 active torsions:
REMARK  status: ('A' for Active; 'I' for Inactive)
REMARK    1  A    between atoms: _1  and  _3
REMARK    2  A    between atoms: _3  and  _4
REMARK    3  A    between atoms: _3  and  _6
REMARK    4  A    between atoms: _9  and  _11
REMARK    5  A    between atoms: _11  and  _12
REMARK    6  A    between atoms: _15  and  _17
REMARK    7  A    between atoms: _17  and  _18
REMARK    8  A    between atoms: _17  and  _20
REMARK    9  A    between atoms: _20  and  _21
REMARK   10  A    between atoms: _24  and  _26
REMARK   11  A    between atoms: _26  and  _27
REMARK   12  A    between atoms: _26  and  _29
REMARK   13  A    between atoms: _29  and  _30
REMARK   14  A    between atoms: _33  and  _35
REMARK   15  A    between atoms: _35  and  _36
REMARK   16  A    between atoms: _35  and  _38
REMARK   17  A    between atoms: _38  and  _39
REMARK   18  A    between atoms: _41  and  _43
REMARK   19  A    between atoms: _43  and  _44
REMARK   20  A    between atoms: _43  and  _46
REMARK   21  A    between atoms: _46  and  _47
REMARK   22  A    between atoms: _49  and  _51
REMARK   23  A    between atoms: _51  and  _52
REMARK   24  A    between atoms: _51  and  _54
REMARK   25  A    between atoms: _54  and  _55
REMARK   26  A    between atoms: _58  and  _60
REMARK   27  A    between atoms: _60  and  _61
REMARK   28  A    between atoms: _60  and  _63
REMARK   29  A    between atoms: _63  and  _64
REMARK   30  A    between atoms: _69  and  _71
REMARK   31  A    between atoms: _71  and  _72
REMARK   32  A    between atoms: _71  and  _74
REMARK   33  A    between atoms: _74  and  _75
REMARK   34  A    between atoms: _75  and  _76
REMARK   35  A    between atoms: _79  and  _81
REMARK   36  A    between atoms: _81  and  _82
REMARK   37  A    between atoms: _81  and  _84
REMARK   38  A    between atoms: _84  and  _85
REMARK   39  A    between atoms: _88  and  _90
REMARK   40  A    between atoms: _90  and  _91
REMARK   41  A    between atoms: _93  and  _95
REMARK   42  A    between atoms: _95  and  _96
REMARK   43  A    between atoms: _95  and  _98
REMARK   44  A    between atoms: _98  and  _99
REMARK   45  A    between atoms: _99  and  _100
REMARK   46  A    between atoms: _103  and  _105
REMARK   47  A    between atoms: _105  and  _106
REMARK   48  A    between atoms: _105  and  _108
REMARK   49  A    between atoms: _108  and  _109
REMARK   50  A    between atoms: _109  and  _110
REMARK   51  A    between atoms: _110  and  _111
REMARK   52  A    between atoms: _120  and  _122
REMARK   53  A    between atoms: _122  and  _123
REMARK   54  A    between atoms: _122  and  _125
REMARK   55  A    between atoms: _125  and  _126
REMARK   56  A    between atoms: _126  and  _127
REMARK   57  A    between atoms: _132  and  _134
REMARK   58  A    between atoms: _134  and  _135
REMARK   59  A    between atoms: _134  and  _137
REMARK   60  A    between atoms: _137  and  _138
REMARK   61  A    between atoms: _141  and  _143
REMARK   62  A    between atoms: _143  and  _144
REMARK   63  A    between atoms: _143  and  _146
REMARK   64  A    between atoms: _146  and  _147
REMARK   65  A    between atoms: _150  and  _152
REMARK   66  A    between atoms: _152  and  _153
REMARK   67  A    between atoms: _152  and  _155
REMARK   68  A    between atoms: _155  and  _156
REMARK   69  A    between atoms: _156  and  _157
REMARK   70  A    between atoms: _162  and  _164
REMARK   71  A    between atoms: _164  and  _165
REMARK   72  A    between atoms: _164  and  _167
REMARK   73  A    between atoms: _167  and  _168
REMARK   74  A    between atoms: _173  and  _174
REMARK   75  A    between atoms: _176  and  _178
REMARK   76  A    between atoms: _178  and  _179
REMARK   77  A    between atoms: _178  and  _181
REMARK   78  A    between atoms: _181  and  _182
REMARK   79  A    between atoms: _184  and  _186
REMARK   80  A    between atoms: _186  and  _187
REMARK   81  A    between atoms: _186  and  _189
REMARK   82  A    between atoms: _189  and  _190
REMARK   83  A    between atoms: _200  and  _202
REMARK   84  A    between atoms: _202  and  _203
REMARK   85  A    between atoms: _202  and  _205
REMARK   86  A    between atoms: _205  and  _206
REMARK   87  A    between atoms: _206  and  _207
REMARK   88  A    between atoms: _209  and  _211
REMARK   89  A    between atoms: _211  and  _212
REMARK   90  A    between atoms: _214  and  _216
REMARK   91  A    between atoms: _216  and  _217
REMARK   92  A    between atoms: _216  and  _219
REMARK   93  A    between atoms: _219  and  _220
REMARK   94  A    between atoms: _223  and  _225
REMARK   95  A    between atoms: _225  and  _226
REMARK   96  A    between atoms: _225  and  _228
REMARK   97  A    between atoms: _228  and  _229
REMARK   98  A    between atoms: _229  and  _230
REMARK   99  A    between atoms: _232  and  _234
REMARK  100  A    between atoms: _234  and  _235
REMARK  101  A    between atoms: _234  and  _237
REMARK  102  A    between atoms: _240  and  _242
REMARK  103  A    between atoms: _242  and  _243
REMARK  104  A    between atoms: _242  and  _245
REMARK  105  A    between atoms: _245  and  _246
REMARK  106  A    between atoms: _252  and  _254
REMARK  107  A    between atoms: _254  and  _255
REMARK  108  A    between atoms: _258  and  _260
REMARK  109  A    between atoms: _260  and  _261
REMARK  110  A    between atoms: _260  and  _263
REMARK  111  A    between atoms: _263  and  _264
REMARK  112  A    between atoms: _264  and  _265
REMARK  113  A    between atoms: _267  and  _269
REMARK  114  A    between atoms: _269  and  _270
REMARK  115  A    between atoms: _272  and  _274
REMARK  116  A    between atoms: _274  and  _275
REMARK  117  A    between atoms: _274  and  _277
REMARK  118  A    between atoms: _277  and  _278
REMARK  119  A    between atoms: _288  and  _290
REMARK  120  A    between atoms: _290  and  _291
REMARK  121  A    between atoms: _290  and  _293
REMARK  122  A    between atoms: _293  and  _294
REMARK  123  A    between atoms: _294  and  _295
REMARK  124  A    between atoms: _295  and  _296
REMARK  125  A    between atoms: _305  and  _307
REMARK  126  A    between atoms: _307  and  _308
REMARK  127  A    between atoms: _307  and  _310
REMARK  128  A    between atoms: _310  and  _311
REMARK  129  A    between atoms: _313  and  _315
REMARK  130  A    between atoms: _315  and  _316
REMARK  131  A    between atoms: _315  and  _318
REMARK  132  A    between atoms: _318  and  _319
REMARK  133  A    between atoms: _322  and  _324
REMARK  134  A    between atoms: _324  and  _325
REMARK  135  A    between atoms: _324  and  _327
REMARK  136  A    between atoms: _327  and  _328
REMARK  137  A    between atoms: _333  and  _334
REMARK  138  A    between atoms: _336  and  _338
REMARK  139  A    between atoms: _338  and  _339
REMARK  140  A    between atoms: _338  and  _341
REMARK  141  A    between atoms: _341  and  _342
REMARK  142  A    between atoms: _348  and  _350
REMARK  143  A    between atoms: _350  and  _351
REMARK  144  A    between atoms: _354  and  _356
REMARK  145  A    between atoms: _356  and  _357
REMARK  146  A    between atoms: _356  and  _359
REMARK  147  A    between atoms: _359  and  _360
REMARK  148  A    between atoms: _363  and  _365
REMARK  149  A    between atoms: _365  and  _366
REMARK  150  A    between atoms: _365  and  _368
REMARK  151  A    between atoms: _368  and  _369
REMARK  152  A    between atoms: _371  and  _373
REMARK  153  A    between atoms: _373  and  _374
REMARK  154  A    between atoms: _373  and  _376
REMARK  155  A    between atoms: _376  and  _377
REMARK  156  A    between atoms: _377  and  _378
REMARK  157  A    between atoms: _380  and  _382
REMARK  158  A    between atoms: _382  and  _383
REMARK  159  A    between atoms: _382  and  _385
REMARK  160  A    between atoms: _385  and  _386
REMARK  161  A    between atoms: _386  and  _387
REMARK  162  A    between atoms: _392  and  _394
REMARK  163  A    between atoms: _394  and  _395
REMARK  164  A    between atoms: _394  and  _397
REMARK  165  A    between atoms: _399  and  _401
REMARK  166  A    between atoms: _401  and  _402
REMARK  167  A    between atoms: _401  and  _404
REMARK  168  A    between atoms: _404  and  _405
REMARK  169  A    between atoms: _405  and  _406
REMARK  170  A    between atoms: _408  and  _410
REMARK  171  A    between atoms: _410  and  _411
REMARK  172  A    between atoms: _410  and  _413
REMARK  173  A    between atoms: _413  and  _414
REMARK  174  A    between atoms: _417  and  _419
REMARK  175  A    between atoms: _419  and  _420
REMARK  176  A    between atoms: _423  and  _425
REMARK  177  A    between atoms: _425  and  _426
REMARK  178  A    between atoms: _425  and  _428
REMARK  179  A    between atoms: _428  and  _429
REMARK  180  A    between atoms: _432  and  _434
REMARK  181  A    between atoms: _434  and  _435
REMARK  182  A    between atoms: _434  and  _437
REMARK  183  A    between atoms: _437  and  _438
REMARK  184  A    between atoms: _443  and  _445
REMARK  185  A    between atoms: _445  and  _446
REMARK  186  A    between atoms: _445  and  _448
REMARK  187  A    between atoms: _448  and  _449
REMARK  188  A    between atoms: _455  and  _457
REMARK  189  A    between atoms: _457  and  _458
REMARK  190  A    between atoms: _457  and  _460
REMARK  191  A    between atoms: _460  and  _461
REMARK  192  A    between atoms: _464  and  _466
REMARK  193  A    between atoms: _466  and  _467
REMARK  194  A    between atoms: _466  and  _469
REMARK  195  A    between atoms: _469  and  _470
REMARK  196  A    between atoms: _476  and  _478
REMARK  197  A    between atoms: _478  and  _479
REMARK  198  A    between atoms: _478  and  _481
REMARK  199  A    between atoms: _481  and  _482
REMARK  200  A    between atoms: _485  and  _487
REMARK  201  A    between atoms: _487  and  _488
REMARK  202  A    between atoms: _487  and  _490
REMARK  203  A    between atoms: _490  and  _491
REMARK  204  A    between atoms: _494  and  _496
REMARK  205  A    between atoms: _496  and  _497
REMARK  206  A    between atoms: _496  and  _499
REMARK  207  A    between atoms: _502  and  _504
REMARK  208  A    between atoms: _504  and  _505
REMARK  209  A    between atoms: _504  and  _507
REMARK  210  A    between atoms: _507  and  _508
REMARK  211  A    between atoms: _511  and  _513
REMARK  212  A    between atoms: _513  and  _514
REMARK  213  A    between atoms: _513  and  _516
REMARK  214  A    between atoms: _516  and  _517
REMARK  215  A    between atoms: _524  and  _525
REMARK  216  A    between atoms: _530  and  _532
REMARK  217  A    between atoms: _532  and  _533
REMARK  218  A    between atoms: _532  and  _535
REMARK  219  A    between atoms: _535  and  _536
REMARK  220  A    between atoms: _536  and  _537
REMARK  221  A    between atoms: _539  and  _541
REMARK  222  A    between atoms: _541  and  _542
REMARK  223  A    between atoms: _541  and  _544
REMARK  224  A    between atoms: _544  and  _545
REMARK  225  A    between atoms: _545  and  _546
REMARK  226  A    between atoms: _548  and  _550
REMARK  227  A    between atoms: _550  and  _551
REMARK  228  A    between atoms: _554  and  _556
REMARK  229  A    between atoms: _556  and  _557
REMARK  230  A    between atoms: _556  and  _559
REMARK  231  A    between atoms: _559  and  _560
REMARK  232  A    between atoms: _560  and  _561
REMARK  233  A    between atoms: _564  and  _566
REMARK  234  A    between atoms: _566  and  _567
REMARK  235  A    between atoms: _566  and  _569
REMARK  236  A    between atoms: _569  and  _570
REMARK  237  A    between atoms: _573  and  _575
REMARK  238  A    between atoms: _575  and  _576
REMARK  239  A    between atoms: _575  and  _578
REMARK  240  A    between atoms: _578  and  _579
REMARK  241  A    between atoms: _582  and  _584
REMARK  242  A    between atoms: _584  and  _585
REMARK  243  A    between atoms: _584  and  _587
REMARK  244  A    between atoms: _587  and  _588
REMARK  245  A    between atoms: _590  and  _592
REMARK  246  A    between atoms: _592  and  _593
REMARK  247  A    between atoms: _592  and  _595
REMARK  248  A    between atoms: _598  and  _600
REMARK  249  A    between atoms: _600  and  _601
REMARK  250  A    between atoms: _600  and  _603
REMARK  251  A    between atoms: _603  and  _604
REMARK  252  A    between atoms: _604  and  _605
REMARK  253  A    between atoms: _610  and  _612
REMARK  254  A    between atoms: _612  and  _613
REMARK  255  A    between atoms: _612  and  _615
REMARK  256  A    between atoms: _619  and  _620
REMARK  257  A    between atoms: _625  and  _627
REMARK  258  A    between atoms: _627  and  _628
REMARK  259  A    between atoms: _627  and  _630
REMARK  260  A    between atoms: _630  and  _631
REMARK                            x       y       z     vdW  Elec       q    Type
REMARK                         _______ _______ _______ _____ _____    ______ ____
ROOT
ATOM      1  CA  MET A   1      23.862  -4.788  -1.669  0.00  0.00    +0.134 C 
ENDROOT
BRANCH   1   2
ATOM      2  N   MET A   1      24.643  -5.164  -2.843  0.00  0.00    -0.239 NA
ATOM      3  H   MET A   1      24.687  -4.508  -3.649  0.00  0.00    +0.142 HD
ENDBRANCH   1   2
BRANCH   1   4
ATOM      4  C   MET A   1      22.444  -4.509  -2.140  0.00  0.00    +0.224 C 
ATOM      5  O   MET A   1      21.743  -3.685  -1.553  0.00  0.00    -0.287 OA
ENDBRANCH   1   4
BRANCH   1   6
ATOM      6  CB  MET A   1      24.417  -3.507  -1.045  0.00  0.00    +0.037 C 
BRANCH   6   7
ATOM      7  CG  MET A   1      25.891  -3.531  -0.729  0.00  0.00    +0.059 C 
BRANCH   7   8
ATOM      8  SD  MET A   1      26.459  -1.886  -0.278  0.00  0.00    -0.139 S 
ATOM      9  CE  MET A   1      25.901  -1.800   1.374  0.00  0.00    +0.069 C 
ENDBRANCH   7   8
ENDBRANCH   6   7
ENDBRANCH   1   6
TORSDOF 5
REMARK  Name = ../refined-set-2016/3b66/3b66_pocket.pdb
REMARK  260 active torsions:
REMARK  status: ('A' for Active; 'I' for Inactive)
REMARK    1  A    between atoms: _1  and  _3
REMARK    2  A    between atoms: _3  and  _4
REMARK    3  A    between atoms: _3  and  _6
REMARK    4  A    between atoms: _9  and  _11
REMARK    5  A    between atoms: _11  and  _12
REMARK    6  A    between atoms: _15  and  _17
REMARK    7  A    between atoms: _17  and  _18
REMARK    8  A    between atoms: _17  and  _20
REMARK    9  A    between atoms: _20  and  _21
REMARK   10  A    between atoms: _24  and  _26
REMARK   11  A    between atoms: _26  and  _27
REMARK   12  A    between atoms: _26  and  _29
REMARK   13  A    between atoms: _29  and  _30
REMARK   14  A    between atoms: _33  and  _35
REMARK   15  A    between atoms: _35  and  _36
REMARK   16  A    between atoms: _35  and  _38
REMARK   17  A    between atoms: _38  and  _39
REMARK   18  A    between atoms: _41  and  _43
REMARK   19  A    between atoms: _43  and  _44
REMARK   20  A    between atoms: _43  and  _46
REMARK   21  A    between atoms: _46  and  _47
REMARK   22  A    between atoms: _49  and  _51
REMARK   23  A    between atoms: _51  and  _52
REMARK   24  A    between atoms: _51  and  _54
REMARK   25  A    between atoms: _54  and  _55
REMARK   26  A    between atoms: _58  and  _60
REMARK   27  A    between atoms: _60  and  _61
REMARK   28  A    between atoms: _60  and  _63
REMARK   29  A    between atoms: _63  and  _64
REMARK   30  A    between atoms: _69  and  _71
REMARK   31  A    between atoms: _71  and  _72
REMARK   32  A    between atoms: _71  and  _74
REMARK   33  A    between atoms: _74  and  _75
REMARK   34  A    between atoms: _75  and  _76
REMARK   35  A    between atoms: _79  and  _81
REMARK   36  A    between atoms: _81  and  _82
REMARK   37  A    between atoms: _81  and  _84
REMARK   38  A    between atoms: _84  and  _85
REMARK   39  A    between atoms: _88  and  _90
REMARK   40  A    between atoms: _90  and  _91
REMARK   41  A    between atoms: _93  and  _95
REMARK   42  A    between atoms: _95  and  _96
REMARK   43  A    between atoms: _95  and  _98
REMARK   44  A    between atoms: _98  and  _99
REMARK   45  A    between atoms: _99  and  _100
REMARK   46  A    between atoms: _103  and  _105
REMARK   47  A    between atoms: _105  and  _106
REMARK   48  A    between atoms: _105  and  _108
REMARK   49  A    between atoms: _108  and  _109
REMARK   50  A    between atoms: _109  and  _110
REMARK   51  A    between atoms: _110  and  _111
REMARK   52  A    between atoms: _120  and  _122
REMARK   53  A    between atoms: _122  and  _123
REMARK   54  A    between atoms: _122  and  _125
REMARK   55  A    between atoms: _125  and  _126
REMARK   56  A    between atoms: _126  and  _127
REMARK   57  A    between atoms: _132  and  _134
REMARK   58  A    between atoms: _134  and  _135
REMARK   59  A    between atoms: _134  and  _137
REMARK   60  A    between atoms: _137  and  _138
REMARK   61  A    between atoms: _141  and  _143
REMARK   62  A    between atoms: _143  and  _144
REMARK   63  A    between atoms: _143  and  _146
REMARK   64  A    between atoms: _146  and  _147
REMARK   65  A    between atoms: _150  and  _152
REMARK   66  A    between atoms: _152  and  _153
REMARK   67  A    between atoms: _152  and  _155
REMARK   68  A    between atoms: _155  and  _156
REMARK   69  A    between atoms: _156  and  _157
REMARK   70  A    between atoms: _162  and  _164
REMARK   71  A    between atoms: _164  and  _165
REMARK   72  A    between atoms: _164  and  _167
REMARK   73  A    between atoms: _167  and  _168
REMARK   74  A    between atoms: _173  and  _174
REMARK   75  A    between atoms: _176  and  _178
REMARK   76  A    between atoms: _178  and  _179
REMARK   77  A    between atoms: _178  and  _181
REMARK   78  A    between atoms: _181  and  _182
REMARK   79  A    between atoms: _184  and  _186
REMARK   80  A    between atoms: _186  and  _187
REMARK   81  A    between atoms: _186  and  _189
REMARK   82  A    between atoms: _189  and  _190
REMARK   83  A    between atoms: _200  and  _202
REMARK   84  A    between atoms: _202  and  _203
REMARK   85  A    between atoms: _202  and  _205
REMARK   86  A    between atoms: _205  and  _206
REMARK   87  A    between atoms: _206  and  _207
REMARK   88  A    between atoms: _209  and  _211
REMARK   89  A    between atoms: _211  and  _212
REMARK   90  A    between atoms: _214  and  _216
REMARK   91  A    between atoms: _216  and  _217
REMARK   92  A    between atoms: _216  and  _219
REMARK   93  A    between atoms: _219  and  _220
REMARK   94  A    between atoms: _223  and  _225
REMARK   95  A    between atoms: _225  and  _226
REMARK   96  A    between atoms: _225  and  _228
REMARK   97  A    between atoms: _228  and  _229
REMARK   98  A    between atoms: _229  and  _230
REMARK   99  A    between atoms: _232  and  _234
REMARK  100  A    between atoms: _234  and  _235
REMARK  101  A    between atoms: _234  and  _237
REMARK  102  A    between atoms: _240  and  _242
REMARK  103  A    between atoms: _242  and  _243
REMARK  104  A    between atoms: _242  and  _245
REMARK  105  A    between atoms: _245  and  _246
REMARK  106  A    between atoms: _252  and  _254
REMARK  107  A    between atoms: _254  and  _255
REMARK  108  A    between atoms: _258  and  _260
REMARK  109  A    between atoms: _260  and  _261
REMARK  110  A    between atoms: _260  and  _263
REMARK  111  A    between atoms: _263  and  _264
REMARK  112  A    between atoms: _264  and  _265
REMARK  113  A    between atoms: _267  and  _269
REMARK  114  A    between atoms: _269  and  _270
REMARK  115  A    between atoms: _272  and  _274
REMARK  116  A    between atoms: _274  and  _275
REMARK  117  A    between atoms: _274  and  _277
REMARK  118  A    between atoms: _277  and  _278
REMARK  119  A    between atoms: _288  and  _290
REMARK  120  A    between atoms: _290  and  _291
REMARK  121  A    between atoms: _290  and  _293
REMARK  122  A    between atoms: _293  and  _294
REMARK  123  A    between atoms: _294  and  _295
REMARK  124  A    between atoms: _295  and  _296
REMARK  125  A    between atoms: _305  and  _307
REMARK  126  A    between atoms: _307  and  _308
REMARK  127  A    between atoms: _307  and  _310
REMARK  128  A    between atoms: _310  and  _311
REMARK  129  A    between atoms: _313  and  _315
REMARK  130  A    between atoms: _315  and  _316
REMARK  131  A    between atoms: _315  and  _318
REMARK  132  A    between atoms: _318  and  _319
REMARK  133  A    between atoms: _322  and  _324
REMARK  134  A    between atoms: _324  and  _325
REMARK  135  A    between atoms: _324  and  _327
REMARK  136  A    between atoms: _327  and  _328
REMARK  137  A    between atoms: _333  and  _334
REMARK  138  A    between atoms: _336  and  _338
REMARK  139  A    between atoms: _338  and  _339
REMARK  140  A    between atoms: _338  and  _341
REMARK  141  A    between atoms: _341  and  _342
REMARK  142  A    between atoms: _348  and  _350
REMARK  143  A    between atoms: _350  and  _351
REMARK  144  A    between atoms: _354  and  _356
REMARK  145  A    between atoms: _356  and  _357
REMARK  146  A    between atoms: _356  and  _359
REMARK  147  A    between atoms: _359  and  _360
REMARK  148  A    between atoms: _363  and  _365
REMARK  149  A    between atoms: _365  and  _366
REMARK  150  A    between atoms: _365  and  _368
REMARK  151  A    between atoms: _368  and  _369
REMARK  152  A    between atoms: _371  and  _373
REMARK  153  A    between atoms: _373  and  _374
REMARK  154  A    between atoms: _373  and  _376
REMARK  155  A    between atoms: _376  and  _377
REMARK  156  A    between atoms: _377  and  _378
REMARK  157  A    between atoms: _380  and  _382
REMARK  158  A    between atoms: _382  and  _383
REMARK  159  A    between atoms: _382  and  _385
REMARK  160  A    between atoms: _385  and  _386
REMARK  161  A    between atoms: _386  and  _387
REMARK  162  A    between atoms: _392  and  _394
REMARK  163  A    between atoms: _394  and  _395
REMARK  164  A    between atoms: _394  and  _397
REMARK  165  A    between atoms: _399  and  _401
REMARK  166  A    between atoms: _401  and  _402
REMARK  167  A    between atoms: _401  and  _404
REMARK  168  A    between atoms: _404  and  _405
REMARK  169  A    between atoms: _405  and  _406
REMARK  170  A    between atoms: _408  and  _410
REMARK  171  A    between atoms: _410  and  _411
REMARK  172  A    between atoms: _410  and  _413
REMARK  173  A    between atoms: _413  and  _414
REMARK  174  A    between atoms: _417  and  _419
REMARK  175  A    between atoms: _419  and  _420
REMARK  176  A    between atoms: _423  and  _425
REMARK  177  A    between atoms: _425  and  _426
REMARK  178  A    between atoms: _425  and  _428
REMARK  179  A    between atoms: _428  and  _429
REMARK  180  A    between atoms: _432  and  _434
REMARK  181  A    between atoms: _434  and  _435
REMARK  182  A    between atoms: _434  and  _437
REMARK  183  A    between atoms: _437  and  _438
REMARK  184  A    between atoms: _443  and  _445
REMARK  185  A    between atoms: _445  and  _446
REMARK  186  A    between atoms: _445  and  _448
REMARK  187  A    between atoms: _448  and  _449
REMARK  188  A    between atoms: _455  and  _457
REMARK  189  A    between atoms: _457  and  _458
REMARK  190  A    between atoms: _457  and  _460
REMARK  191  A    between atoms: _460  and  _461
REMARK  192  A    between atoms: _464  and  _466
REMARK  193  A    between atoms: _466  and  _467
REMARK  194  A    between atoms: _466  and  _469
REMARK  195  A    between atoms: _469  and  _470
REMARK  196  A    between atoms: _476  and  _478
REMARK  197  A    between atoms: _478  and  _479
REMARK  198  A    between atoms: _478  and  _481
REMARK  199  A    between atoms: _481  and  _482
REMARK  200  A    between atoms: _485  and  _487
REMARK  201  A    between atoms: _487  and  _488
REMARK  202  A    between atoms: _487  and  _490
REMARK  203  A    between atoms: _490  and  _491
REMARK  204  A    between atoms: _494  and  _496
REMARK  205  A    between atoms: _496  and  _497
REMARK  206  A    between atoms: _496  and  _499
REMARK  207  A    between atoms: _502  and  _504
REMARK  208  A    between atoms: _504  and  _505
REMARK  209  A    between atoms: _504  and  _507
REMARK  210  A    between atoms: _507  and  _508
REMARK  211  A    between atoms: _511  and  _513
REMARK  212  A    between atoms: _513  and  _514
REMARK  213  A    between atoms: _513  and  _516
REMARK  214  A    between atoms: _516  and  _517
REMARK  215  A    between atoms: _524  and  _525
REMARK  216  A    between atoms: _530  and  _532
REMARK  217  A    between atoms: _532  and  _533
REMARK  218  A    between atoms: _532  and  _535
REMARK  219  A    between atoms: _535  and  _536
REMARK  220  A    between atoms: _536  and  _537
REMARK  221  A    between atoms: _539  and  _541
REMARK  222  A    between atoms: _541  and  _542
REMARK  223  A    between atoms: _541  and  _544
REMARK  224  A    between atoms: _544  and  _545
REMARK  225  A    between atoms: _545  and  _546
REMARK  226  A    between atoms: _548  and  _550
REMARK  227  A    between atoms: _550  and  _551
REMARK  228  A    between atoms: _554  and  _556
REMARK  229  A    between atoms: _556  and  _557
REMARK  230  A    between atoms: _556  and  _559
REMARK  231  A    between atoms: _559  and  _560
REMARK  232  A    between atoms: _560  and  _561
REMARK  233  A    between atoms: _564  and  _566
REMARK  234  A    between atoms: _566  and  _567
REMARK  235  A    between atoms: _566  and  _569
REMARK  236  A    between atoms: _569  and  _570
REMARK  237  A    between atoms: _573  and  _575
REMARK  238  A    between atoms: _575  and  _576
REMARK  239  A    between atoms: _575  and  _578
REMARK  240  A    between atoms: _578  and  _579
REMARK  241  A    between atoms: _582  and  _584
REMARK  242  A    between atoms: _584  and  _585
REMARK  243  A    between atoms: _584  and  _587
REMARK  244  A    between atoms: _587  and  _588
REMARK  245  A    between atoms: _590  and  _592
REMARK  246  A    between atoms: _592  and  _593
REMARK  247  A    between atoms: _592  and  _595
REMARK  248  A    between atoms: _598  and  _600
REMARK  249  A    between atoms: _600  and  _601
REMARK  250  A    between atoms: _600  and  _603
REMARK  251  A    between atoms: _603  and  _604
REMARK  252  A    between atoms: _604  and  _605
REMARK  253  A    between atoms: _610  and  _612
REMARK  254  A    between atoms: _612  and  _613
REMARK  255  A    between atoms: _612  and  _615
REMARK  256  A    between atoms: _619  and  _620
REMARK  257  A    between atoms: _625  and  _627
REMARK  258  A    between atoms: _627  and  _628
REMARK  259  A    between atoms: _627  and  _630
REMARK  260  A    between atoms: _630  and  _631
REMARK                            x       y       z     vdW  Elec       q    Type
REMARK                         _______ _______ _______ _____ _____    ______ ____
ROOT
ATOM      1  CA  GLN A   1      19.418  -3.713   1.404  0.00  0.00    +0.145 C 
ENDROOT
BRANCH   1   2
ATOM      2  C   GLN A   1      19.012  -2.392   0.746  0.00  0.00    +0.238 C 
ATOM      3  O   GLN A   1      18.251  -1.615   1.324  0.00  0.00    -0.274 OA
ATOM      4  N   CYS A   2      19.510  -2.141  -0.462  0.00  0.00    -0.298 N 
ATOM      5  H   CYS A   2      20.147  -2.831  -0.909  0.00  0.00    +0.150 HD
BRANCH   4   6
ATOM      6  CA  CYS A   2      19.173  -0.909  -1.168  0.00  0.00    +0.149 C 
BRANCH   6   7
ATOM      7  C   CYS A   2      17.686  -0.811  -1.439  0.00  0.00    +0.228 C 
ATOM      8  O   CYS A   2      17.101   0.258  -1.286  0.00  0.00    -0.286 OA
ENDBRANCH   6   7
BRANCH   6   9
ATOM      9  CB  CYS A   2      19.926  -0.804  -2.496  0.00  0.00    +0.096 C 
ATOM     10  SG  CYS A   2      21.673  -0.425  -2.313  0.00  0.00    -0.080 S 
ENDBRANCH   6   9
ENDBRANCH   4   6
ENDBRANCH   1   2
BRANCH   1  11
ATOM     11  N   GLN A   1      19.383  -4.814   0.447  0.00  0.00    -0.238 NA
ATOM     12  H   GLN A   1      20.260  -5.321   0.211  0.00  0.00    +0.142 HD
ENDBRANCH   1  11
BRANCH   1  13
ATOM     13  CB  GLN A   1      20.817  -3.579   2.024  0.00  0.00    +0.036 C 
BRANCH  13  14
ATOM     14  CG  GLN A   1      21.278  -4.812   2.797  0.00  0.00    +0.087 C 
BRANCH  14  15
ATOM     15  CD  GLN A   1      22.101  -5.769   1.950  0.00  0.00    +0.219 C 
ATOM     16  NE2 GLN A   1      23.129  -6.359   2.552  0.00  0.00    -0.329 N 
ATOM     17 HE21 GLN A   1      23.338  -6.149   3.549  0.00  0.00    +0.145 HD
ATOM     18 HE22 GLN A   1      23.724  -7.031   2.026  0.00  0.00    +0.145 HD
ATOM     19  OE1 GLN A   1      21.812  -5.982   0.777  0.00  0.00    -0.275 OA
ENDBRANCH  14  15
ENDBRANCH  13  14
ENDBRANCH   1  13
TORSDOF 8
REMARK  Name = ../refined-set-2016/3b66/3b66_pocket.pdb
REMARK  260 active torsions:
REMARK  status: ('A' for Active; 'I' for Inactive)
REMARK    1  A    between atoms: _1  and  _3
REMARK    2  A    between atoms: _3  and  _4
REMARK    3  A    between atoms: _3  and  _6
REMARK    4  A    between atoms: _9  and  _11
REMARK    5  A    between atoms: _11  and  _12
REMARK    6  A    between atoms: _15  and  _17
REMARK    7  A    between atoms: _17  and  _18
REMARK    8  A    between atoms: _17  and  _20
REMARK    9  A    between atoms: _20  and  _21
REMARK   10  A    between atoms: _24  and  _26
REMARK   11  A    between atoms: _26  and  _27
REMARK   12  A    between atoms: _26  and  _29
REMARK   13  A    between atoms: _29  and  _30
REMARK   14  A    between atoms: _33  and  _35
REMARK   15  A    between atoms: _35  and  _36
REMARK   16  A    between atoms: _35  and  _38
REMARK   17  A    between atoms: _38  and  _39
REMARK   18  A    between atoms: _41  and  _43
REMARK   19  A    between atoms: _43  and  _44
REMARK   20  A    between atoms: _43  and  _46
REMARK   21  A    between atoms: _46  and  _47
REMARK   22  A    between atoms: _49  and  _51
REMARK   23  A    between atoms: _51  and  _52
REMARK   24  A    between atoms: _51  and  _54
REMARK   25  A    between atoms: _54  and  _55
REMARK   26  A    between atoms: _58  and  _60
REMARK   27  A    between atoms: _60  and  _61
REMARK   28  A    between atoms: _60  and  _63
REMARK   29  A    between atoms: _63  and  _64
REMARK   30  A    between atoms: _69  and  _71
REMARK   31  A    between atoms: _71  and  _72
REMARK   32  A    between atoms: _71  and  _74
REMARK   33  A    between atoms: _74  and  _75
REMARK   34  A    between atoms: _75  and  _76
REMARK   35  A    between atoms: _79  and  _81
REMARK   36  A    between atoms: _81  and  _82
REMARK   37  A    between atoms: _81  and  _84
REMARK   38  A    between atoms: _84  and  _85
REMARK   39  A    between atoms: _88  and  _90
REMARK   40  A    between atoms: _90  and  _91
REMARK   41  A    between atoms: _93  and  _95
REMARK   42  A    between atoms: _95  and  _96
REMARK   43  A    between atoms: _95  and  _98
REMARK   44  A    between atoms: _98  and  _99
REMARK   45  A    between atoms: _99  and  _100
REMARK   46  A    between atoms: _103  and  _105
REMARK   47  A    between atoms: _105  and  _106
REMARK   48  A    between atoms: _105  and  _108
REMARK   49  A    between atoms: _108  and  _109
REMARK   50  A    between atoms: _109  and  _110
REMARK   51  A    between atoms: _110  and  _111
REMARK   52  A    between atoms: _120  and  _122
REMARK   53  A    between atoms: _122  and  _123
REMARK   54  A    between atoms: _122  and  _125
REMARK   55  A    between atoms: _125  and  _126
REMARK   56  A    between atoms: _126  and  _127
REMARK   57  A    between atoms: _132  and  _134
REMARK   58  A    between atoms: _134  and  _135
REMARK   59  A    between atoms: _134  and  _137
REMARK   60  A    between atoms: _137  and  _138
REMARK   61  A    between atoms: _141  and  _143
REMARK   62  A    between atoms: _143  and  _144
REMARK   63  A    between atoms: _143  and  _146
REMARK   64  A    between atoms: _146  and  _147
REMARK   65  A    between atoms: _150  and  _152
REMARK   66  A    between atoms: _152  and  _153
REMARK   67  A    between atoms: _152  and  _155
REMARK   68  A    between atoms: _155  and  _156
REMARK   69  A    between atoms: _156  and  _157
REMARK   70  A    between atoms: _162  and  _164
REMARK   71  A    between atoms: _164  and  _165
REMARK   72  A    between atoms: _164  and  _167
REMARK   73  A    between atoms: _167  and  _168
REMARK   74  A    between atoms: _173  and  _174
REMARK   75  A    between atoms: _176  and  _178
REMARK   76  A    between atoms: _178  and  _179
REMARK   77  A    between atoms: _178  and  _181
REMARK   78  A    between atoms: _181  and  _182
REMARK   79  A    between atoms: _184  and  _186
REMARK   80  A    between atoms: _186  and  _187
REMARK   81  A    between atoms: _186  and  _189
REMARK   82  A    between atoms: _189  and  _190
REMARK   83  A    between atoms: _200  and  _202
REMARK   84  A    between atoms: _202  and  _203
REMARK   85  A    between atoms: _202  and  _205
REMARK   86  A    between atoms: _205  and  _206
REMARK   87  A    between atoms: _206  and  _207
REMARK   88  A    between atoms: _209  and  _211
REMARK   89  A    between atoms: _211  and  _212
REMARK   90  A    between atoms: _214  and  _216
REMARK   91  A    between atoms: _216  and  _217
REMARK   92  A    between atoms: _216  and  _219
REMARK   93  A    between atoms: _219  and  _220
REMARK   94  A    between atoms: _223  and  _225
REMARK   95  A    between atoms: _225  and  _226
REMARK   96  A    between atoms: _225  and  _228
REMARK   97  A    between atoms: _228  and  _229
REMARK   98  A    between atoms: _229  and  _230
REMARK   99  A    between atoms: _232  and  _234
REMARK  100  A    between atoms: _234  and  _235
REMARK  101  A    between atoms: _234  and  _237
REMARK  102  A    between atoms: _240  and  _242
REMARK  103  A    between atoms: _242  and  _243
REMARK  104  A    between atoms: _242  and  _245
REMARK  105  A    between atoms: _245  and  _246
REMARK  106  A    between atoms: _252  and  _254
REMARK  107  A    between atoms: _254  and  _255
REMARK  108  A    between atoms: _258  and  _260
REMARK  109  A    between atoms: _260  and  _261
REMARK  110  A    between atoms: _260  and  _263
REMARK  111  A    between atoms: _263  and  _264
REMARK  112  A    between atoms: _264  and  _265
REMARK  113  A    between atoms: _267  and  _269
REMARK  114  A    between atoms: _269  and  _270
REMARK  115  A    between atoms: _272  and  _274
REMARK  116  A    between atoms: _274  and  _275
REMARK  117  A    between atoms: _274  and  _277
REMARK  118  A    between atoms: _277  and  _278
REMARK  119  A    between atoms: _288  and  _290
REMARK  120  A    between atoms: _290  and  _291
REMARK  121  A    between atoms: _290  and  _293
REMARK  122  A    between atoms: _293  and  _294
REMARK  123  A    between atoms: _294  and  _295
REMARK  124  A    between atoms: _295  and  _296
REMARK  125  A    between atoms: _305  and  _307
REMARK  126  A    between atoms: _307  and  _308
REMARK  127  A    between atoms: _307  and  _310
REMARK  128  A    between atoms: _310  and  _311
REMARK  129  A    between atoms: _313  and  _315
REMARK  130  A    between atoms: _315  and  _316
REMARK  131  A    between atoms: _315  and  _318
REMARK  132  A    between atoms: _318  and  _319
REMARK  133  A    between atoms: _322  and  _324
REMARK  134  A    between atoms: _324  and  _325
REMARK  135  A    between atoms: _324  and  _327
REMARK  136  A    between atoms: _327  and  _328
REMARK  137  A    between atoms: _333  and  _334
REMARK  138  A    between atoms: _336  and  _338
REMARK  139  A    between atoms: _338  and  _339
REMARK  140  A    between atoms: _338  and  _341
REMARK  141  A    between atoms: _341  and  _342
REMARK  142  A    between atoms: _348  and  _350
REMARK  143  A    between atoms: _350  and  _351
REMARK  144  A    between atoms: _354  and  _356
REMARK  145  A    between atoms: _356  and  _357
REMARK  146  A    between atoms: _356  and  _359
REMARK  147  A    between atoms: _359  and  _360
REMARK  148  A    between atoms: _363  and  _365
REMARK  149  A    between atoms: _365  and  _366
REMARK  150  A    between atoms: _365  and  _368
REMARK  151  A    between atoms: _368  and  _369
REMARK  152  A    between atoms: _371  and  _373
REMARK  153  A    between atoms: _373  and  _374
REMARK  154  A    between atoms: _373  and  _376
REMARK  155  A    between atoms: _376  and  _377
REMARK  156  A    between atoms: _377  and  _378
REMARK  157  A    between atoms: _380  and  _382
REMARK  158  A    between atoms: _382  and  _383
REMARK  159  A    between atoms: _382  and  _385
REMARK  160  A    between atoms: _385  and  _386
REMARK  161  A    between atoms: _386  and  _387
REMARK  162  A    between atoms: _392  and  _394
REMARK  163  A    between atoms: _394  and  _395
REMARK  164  A    between atoms: _394  and  _397
REMARK  165  A    between atoms: _399  and  _401
REMARK  166  A    between atoms: _401  and  _402
REMARK  167  A    between atoms: _401  and  _404
REMARK  168  A    between atoms: _404  and  _405
REMARK  169  A    between atoms: _405  and  _406
REMARK  170  A    between atoms: _408  and  _410
REMARK  171  A    between atoms: _410  and  _411
REMARK  172  A    between atoms: _410  and  _413
REMARK  173  A    between atoms: _413  and  _414
REMARK  174  A    between atoms: _417  and  _419
REMARK  175  A    between atoms: _419  and  _420
REMARK  176  A    between atoms: _423  and  _425
REMARK  177  A    between atoms: _425  and  _426
REMARK  178  A    between atoms: _425  and  _428
REMARK  179  A    between atoms: _428  and  _429
REMARK  180  A    between atoms: _432  and  _434
REMARK  181  A    between atoms: _434  and  _435
REMARK  182  A    between atoms: _434  and  _437
REMARK  183  A    between atoms: _437  and  _438
REMARK  184  A    between atoms: _443  and  _445
REMARK  185  A    between atoms: _445  and  _446
REMARK  186  A    between atoms: _445  and  _448
REMARK  187  A    between atoms: _448  and  _449
REMARK  188  A    between atoms: _455  and  _457
REMARK  189  A    between atoms: _457  and  _458
REMARK  190  A    between atoms: _457  and  _460
REMARK  191  A    between atoms: _460  and  _461
REMARK  192  A    between atoms: _464  and  _466
REMARK  193  A    between atoms: _466  and  _467
REMARK  194  A    between atoms: _466  and  _469
REMARK  195  A    between atoms: _469  and  _470
REMARK  196  A    between atoms: _476  and  _478
REMARK  197  A    between atoms: _478  and  _479
REMARK  198  A    between atoms: _478  and  _481
REMARK  199  A    between atoms: _481  and  _482
REMARK  200  A    between atoms: _485  and  _487
REMARK  201  A    between atoms: _487  and  _488
REMARK  202  A    between atoms: _487  and  _490
REMARK  203  A    between atoms: _490  and  _491
REMARK  204  A    between atoms: _494  and  _496
REMARK  205  A    between atoms: _496  and  _497
REMARK  206  A    between atoms: _496  and  _499
REMARK  207  A    between atoms: _502  and  _504
REMARK  208  A    between atoms: _504  and  _505
REMARK  209  A    between atoms: _504  and  _507
REMARK  210  A    between atoms: _507  and  _508
REMARK  211  A    between atoms: _511  and  _513
REMARK  212  A    between atoms: _513  and  _514
REMARK  213  A    between atoms: _513  and  _516
REMARK  214  A    between atoms: _516  and  _517
REMARK  215  A    between atoms: _524  and  _525
REMARK  216  A    between atoms: _530  and  _532
REMARK  217  A    between atoms: _532  and  _533
REMARK  218  A    between atoms: _532  and  _535
REMARK  219  A    between atoms: _535  and  _536
REMARK  220  A    between atoms: _536  and  _537
REMARK  221  A    between atoms: _539  and  _541
REMARK  222  A    between atoms: _541  and  _542
REMARK  223  A    between atoms: _541  and  _544
REMARK  224  A    between atoms: _544  and  _545
REMARK  225  A    between atoms: _545  and  _546
REMARK  226  A    between atoms: _548  and  _550
REMARK  227  A    between atoms: _550  and  _551
REMARK  228  A    between atoms: _554  and  _556
REMARK  229  A    between atoms: _556  and  _557
REMARK  230  A    between atoms: _556  and  _559
REMARK  231  A    between atoms: _559  and  _560
REMARK  232  A    between atoms: _560  and  _561
REMARK  233  A    between atoms: _564  and  _566
REMARK  234  A    between atoms: _566  and  _567
REMARK  235  A    between atoms: _566  and  _569
REMARK  236  A    between atoms: _569  and  _570
REMARK  237  A    between atoms: _573  and  _575
REMARK  238  A    between atoms: _575  and  _576
REMARK  239  A    between atoms: _575  and  _578
REMARK  240  A    between atoms: _578  and  _579
REMARK  241  A    between atoms: _582  and  _584
REMARK  242  A    between atoms: _584  and  _585
REMARK  243  A    between atoms: _584  and  _587
REMARK  244  A    between atoms: _587  and  _588
REMARK  245  A    between atoms: _590  and  _592
REMARK  246  A    between atoms: _592  and  _593
REMARK  247  A    between atoms: _592  and  _595
REMARK  248  A    between atoms: _598  and  _600
REMARK  249  A    between atoms: _600  and  _601
REMARK  250  A    between atoms: _600  and  _603
REMARK  251  A    between atoms: _603  and  _604
REMARK  252  A    between atoms: _604  and  _605
REMARK  253  A    between atoms: _610  and  _612
REMARK  254  A    between atoms: _612  and  _613
REMARK  255  A    between atoms: _612  and  _615
REMARK  256  A    between atoms: _619  and  _620
REMARK  257  A    between atoms: _625  and  _627
REMARK  258  A    between atoms: _627  and  _628
REMARK  259  A    between atoms: _627  and  _630
REMARK  260  A    between atoms: _630  and  _631
REMARK                            x       y       z     vdW  Elec       q    Type
REMARK                         _______ _______ _______ _____ _____    ______ ____
ROOT
ATOM      1  CA  MET A   1      16.058   1.643   1.854  0.00  0.00    +0.134 C 
ENDROOT
BRANCH   1   2
ATOM      2  N   MET A   1      15.858   0.230   1.557  0.00  0.00    -0.239 NA
ATOM      3  H   MET A   1      16.613  -0.316   1.094  0.00  0.00    +0.142 HD
ENDBRANCH   1   2
BRANCH   1   4
ATOM      4  C   MET A   1      15.230   2.495   0.890  0.00  0.00    +0.224 C 
ATOM      5  O   MET A   1      14.801   3.590   1.242  0.00  0.00    -0.287 OA
ENDBRANCH   1   4
BRANCH   1   6
ATOM      6  CB  MET A   1      17.546   2.013   1.776  0.00  0.00    +0.037 C 
BRANCH   6   7
ATOM      7  CG  MET A   1      18.383   1.353   2.879  0.00  0.00    +0.059 C 
BRANCH   7   8
ATOM      8  SD  MET A   1      20.114   1.882   3.003  0.00  0.00    -0.139 S 
ATOM      9  CE  MET A   1      20.799   1.075   1.578  0.00  0.00    +0.069 C 
ENDBRANCH   7   8
ENDBRANCH   6   7
ENDBRANCH   1   6
TORSDOF 5
REMARK  Name = ../refined-set-2016/3b66/3b66_pocket.pdb
REMARK  260 active torsions:
REMARK  status: ('A' for Active; 'I' for Inactive)
REMARK    1  A    between atoms: _1  and  _3
REMARK    2  A    between atoms: _3  and  _4
REMARK    3  A    between atoms: _3  and  _6
REMARK    4  A    between atoms: _9  and  _11
REMARK    5  A    between atoms: _11  and  _12
REMARK    6  A    between atoms: _15  and  _17
REMARK    7  A    between atoms: _17  and  _18
REMARK    8  A    between atoms: _17  and  _20
REMARK    9  A    between atoms: _20  and  _21
REMARK   10  A    between atoms: _24  and  _26
REMARK   11  A    between atoms: _26  and  _27
REMARK   12  A    between atoms: _26  and  _29
REMARK   13  A    between atoms: _29  and  _30
REMARK   14  A    between atoms: _33  and  _35
REMARK   15  A    between atoms: _35  and  _36
REMARK   16  A    between atoms: _35  and  _38
REMARK   17  A    between atoms: _38  and  _39
REMARK   18  A    between atoms: _41  and  _43
REMARK   19  A    between atoms: _43  and  _44
REMARK   20  A    between atoms: _43  and  _46
REMARK   21  A    between atoms: _46  and  _47
REMARK   22  A    between atoms: _49  and  _51
REMARK   23  A    between atoms: _51  and  _52
REMARK   24  A    between atoms: _51  and  _54
REMARK   25  A    between atoms: _54  and  _55
REMARK   26  A    between atoms: _58  and  _60
REMARK   27  A    between atoms: _60  and  _61
REMARK   28  A    between atoms: _60  and  _63
REMARK   29  A    between atoms: _63  and  _64
REMARK   30  A    between atoms: _69  and  _71
REMARK   31  A    between atoms: _71  and  _72
REMARK   32  A    between atoms: _71  and  _74
REMARK   33  A    between atoms: _74  and  _75
REMARK   34  A    between atoms: _75  and  _76
REMARK   35  A    between atoms: _79  and  _81
REMARK   36  A    between atoms: _81  and  _82
REMARK   37  A    between atoms: _81  and  _84
REMARK   38  A    between atoms: _84  and  _85
REMARK   39  A    between atoms: _88  and  _90
REMARK   40  A    between atoms: _90  and  _91
REMARK   41  A    between atoms: _93  and  _95
REMARK   42  A    between atoms: _95  and  _96
REMARK   43  A    between atoms: _95  and  _98
REMARK   44  A    between atoms: _98  and  _99
REMARK   45  A    between atoms: _99  and  _100
REMARK   46  A    between atoms: _103  and  _105
REMARK   47  A    between atoms: _105  and  _106
REMARK   48  A    between atoms: _105  and  _108
REMARK   49  A    between atoms: _108  and  _109
REMARK   50  A    between atoms: _109  and  _110
REMARK   51  A    between atoms: _110  and  _111
REMARK   52  A    between atoms: _120  and  _122
REMARK   53  A    between atoms: _122  and  _123
REMARK   54  A    between atoms: _122  and  _125
REMARK   55  A    between atoms: _125  and  _126
REMARK   56  A    between atoms: _126  and  _127
REMARK   57  A    between atoms: _132  and  _134
REMARK   58  A    between atoms: _134  and  _135
REMARK   59  A    between atoms: _134  and  _137
REMARK   60  A    between atoms: _137  and  _138
REMARK   61  A    between atoms: _141  and  _143
REMARK   62  A    between atoms: _143  and  _144
REMARK   63  A    between atoms: _143  and  _146
REMARK   64  A    between atoms: _146  and  _147
REMARK   65  A    between atoms: _150  and  _152
REMARK   66  A    between atoms: _152  and  _153
REMARK   67  A    between atoms: _152  and  _155
REMARK   68  A    between atoms: _155  and  _156
REMARK   69  A    between atoms: _156  and  _157
REMARK   70  A    between atoms: _162  and  _164
REMARK   71  A    between atoms: _164  and  _165
REMARK   72  A    between atoms: _164  and  _167
REMARK   73  A    between atoms: _167  and  _168
REMARK   74  A    between atoms: _173  and  _174
REMARK   75  A    between atoms: _176  and  _178
REMARK   76  A    between atoms: _178  and  _179
REMARK   77  A    between atoms: _178  and  _181
REMARK   78  A    between atoms: _181  and  _182
REMARK   79  A    between atoms: _184  and  _186
REMARK   80  A    between atoms: _186  and  _187
REMARK   81  A    between atoms: _186  and  _189
REMARK   82  A    between atoms: _189  and  _190
REMARK   83  A    between atoms: _200  and  _202
REMARK   84  A    between atoms: _202  and  _203
REMARK   85  A    between atoms: _202  and  _205
REMARK   86  A    between atoms: _205  and  _206
REMARK   87  A    between atoms: _206  and  _207
REMARK   88  A    between atoms: _209  and  _211
REMARK   89  A    between atoms: _211  and  _212
REMARK   90  A    between atoms: _214  and  _216
REMARK   91  A    between atoms: _216  and  _217
REMARK   92  A    between atoms: _216  and  _219
REMARK   93  A    between atoms: _219  and  _220
REMARK   94  A    between atoms: _223  and  _225
REMARK   95  A    between atoms: _225  and  _226
REMARK   96  A    between atoms: _225  and  _228
REMARK   97  A    between atoms: _228  and  _229
REMARK   98  A    between atoms: _229  and  _230
REMARK   99  A    between atoms: _232  and  _234
REMARK  100  A    between atoms: _234  and  _235
REMARK  101  A    between atoms: _234  and  _237
REMARK  102  A    between atoms: _240  and  _242
REMARK  103  A    between atoms: _242  and  _243
REMARK  104  A    between atoms: _242  and  _245
REMARK  105  A    between atoms: _245  and  _246
REMARK  106  A    between atoms: _252  and  _254
REMARK  107  A    between atoms: _254  and  _255
REMARK  108  A    between atoms: _258  and  _260
REMARK  109  A    between atoms: _260  and  _261
REMARK  110  A    between atoms: _260  and  _263
REMARK  111  A    between atoms: _263  and  _264
REMARK  112  A    between atoms: _264  and  _265
REMARK  113  A    between atoms: _267  and  _269
REMARK  114  A    between atoms: _269  and  _270
REMARK  115  A    between atoms: _272  and  _274
REMARK  116  A    between atoms: _274  and  _275
REMARK  117  A    between atoms: _274  and  _277
REMARK  118  A    between atoms: _277  and  _278
REMARK  119  A    between atoms: _288  and  _290
REMARK  120  A    between atoms: _290  and  _291
REMARK  121  A    between atoms: _290  and  _293
REMARK  122  A    between atoms: _293  and  _294
REMARK  123  A    between atoms: _294  and  _295
REMARK  124  A    between atoms: _295  and  _296
REMARK  125  A    between atoms: _305  and  _307
REMARK  126  A    between atoms: _307  and  _308
REMARK  127  A    between atoms: _307  and  _310
REMARK  128  A    between atoms: _310  and  _311
REMARK  129  A    between atoms: _313  and  _315
REMARK  130  A    between atoms: _315  and  _316
REMARK  131  A    between atoms: _315  and  _318
REMARK  132  A    between atoms: _318  and  _319
REMARK  133  A    between atoms: _322  and  _324
REMARK  134  A    between atoms: _324  and  _325
REMARK  135  A    between atoms: _324  and  _327
REMARK  136  A    between atoms: _327  and  _328
REMARK  137  A    between atoms: _333  and  _334
REMARK  138  A    between atoms: _336  and  _338
REMARK  139  A    between atoms: _338  and  _339
REMARK  140  A    between atoms: _338  and  _341
REMARK  141  A    between atoms: _341  and  _342
REMARK  142  A    between atoms: _348  and  _350
REMARK  143  A    between atoms: _350  and  _351
REMARK  144  A    between atoms: _354  and  _356
REMARK  145  A    between atoms: _356  and  _357
REMARK  146  A    between atoms: _356  and  _359
REMARK  147  A    between atoms: _359  and  _360
REMARK  148  A    between atoms: _363  and  _365
REMARK  149  A    between atoms: _365  and  _366
REMARK  150  A    between atoms: _365  and  _368
REMARK  151  A    between atoms: _368  and  _369
REMARK  152  A    between atoms: _371  and  _373
REMARK  153  A    between atoms: _373  and  _374
REMARK  154  A    between atoms: _373  and  _376
REMARK  155  A    between atoms: _376  and  _377
REMARK  156  A    between atoms: _377  and  _378
REMARK  157  A    between atoms: _380  and  _382
REMARK  158  A    between atoms: _382  and  _383
REMARK  159  A    between atoms: _382  and  _385
REMARK  160  A    between atoms: _385  and  _386
REMARK  161  A    between atoms: _386  and  _387
REMARK  162  A    between atoms: _392  and  _394
REMARK  163  A    between atoms: _394  and  _395
REMARK  164  A    between atoms: _394  and  _397
REMARK  165  A    between atoms: _399  and  _401
REMARK  166  A    between atoms: _401  and  _402
REMARK  167  A    between atoms: _401  and  _404
REMARK  168  A    between atoms: _404  and  _405
REMARK  169  A    between atoms: _405  and  _406
REMARK  170  A    between atoms: _408  and  _410
REMARK  171  A    between atoms: _410  and  _411
REMARK  172  A    between atoms: _410  and  _413
REMARK  173  A    between atoms: _413  and  _414
REMARK  174  A    between atoms: _417  and  _419
REMARK  175  A    between atoms: _419  and  _420
REMARK  176  A    between atoms: _423  and  _425
REMARK  177  A    between atoms: _425  and  _426
REMARK  178  A    between atoms: _425  and  _428
REMARK  179  A    between atoms: _428  and  _429
REMARK  180  A    between atoms: _432  and  _434
REMARK  181  A    between atoms: _434  and  _435
REMARK  182  A    between atoms: _434  and  _437
REMARK  183  A    between atoms: _437  and  _438
REMARK  184  A    between atoms: _443  and  _445
REMARK  185  A    between atoms: _445  and  _446
REMARK  186  A    between atoms: _445  and  _448
REMARK  187  A    between atoms: _448  and  _449
REMARK  188  A    between atoms: _455  and  _457
REMARK  189  A    between atoms: _457  and  _458
REMARK  190  A    between atoms: _457  and  _460
REMARK  191  A    between atoms: _460  and  _461
REMARK  192  A    between atoms: _464  and  _466
REMARK  193  A    between atoms: _466  and  _467
REMARK  194  A    between atoms: _466  and  _469
REMARK  195  A    between atoms: _469  and  _470
REMARK  196  A    between atoms: _476  and  _478
REMARK  197  A    between atoms: _478  and  _479
REMARK  198  A    between atoms: _478  and  _481
REMARK  199  A    between atoms: _481  and  _482
REMARK  200  A    between atoms: _485  and  _487
REMARK  201  A    between atoms: _487  and  _488
REMARK  202  A    between atoms: _487  and  _490
REMARK  203  A    between atoms: _490  and  _491
REMARK  204  A    between atoms: _494  and  _496
REMARK  205  A    between atoms: _496  and  _497
REMARK  206  A    between atoms: _496  and  _499
REMARK  207  A    between atoms: _502  and  _504
REMARK  208  A    between atoms: _504  and  _505
REMARK  209  A    between atoms: _504  and  _507
REMARK  210  A    between atoms: _507  and  _508
REMARK  211  A    between atoms: _511  and  _513
REMARK  212  A    between atoms: _513  and  _514
REMARK  213  A    between atoms: _513  and  _516
REMARK  214  A    between atoms: _516  and  _517
REMARK  215  A    between atoms: _524  and  _525
REMARK  216  A    between atoms: _530  and  _532
REMARK  217  A    between atoms: _532  and  _533
REMARK  218  A    between atoms: _532  and  _535
REMARK  219  A    between atoms: _535  and  _536
REMARK  220  A    between atoms: _536  and  _537
REMARK  221  A    between atoms: _539  and  _541
REMARK  222  A    between atoms: _541  and  _542
REMARK  223  A    between atoms: _541  and  _544
REMARK  224  A    between atoms: _544  and  _545
REMARK  225  A    between atoms: _545  and  _546
REMARK  226  A    between atoms: _548  and  _550
REMARK  227  A    between atoms: _550  and  _551
REMARK  228  A    between atoms: _554  and  _556
REMARK  229  A    between atoms: _556  and  _557
REMARK  230  A    between atoms: _556  and  _559
REMARK  231  A    between atoms: _559  and  _560
REMARK  232  A    between atoms: _560  and  _561
REMARK  233  A    between atoms: _564  and  _566
REMARK  234  A    between atoms: _566  and  _567
REMARK  235  A    between atoms: _566  and  _569
REMARK  236  A    between atoms: _569  and  _570
REMARK  237  A    between atoms: _573  and  _575
REMARK  238  A    between atoms: _575  and  _576
REMARK  239  A    between atoms: _575  and  _578
REMARK  240  A    between atoms: _578  and  _579
REMARK  241  A    between atoms: _582  and  _584
REMARK  242  A    between atoms: _584  and  _585
REMARK  243  A    between atoms: _584  and  _587
REMARK  244  A    between atoms: _587  and  _588
REMARK  245  A    between atoms: _590  and  _592
REMARK  246  A    between atoms: _592  and  _593
REMARK  247  A    between atoms: _592  and  _595
REMARK  248  A    between atoms: _598  and  _600
REMARK  249  A    between atoms: _600  and  _601
REMARK  250  A    between atoms: _600  and  _603
REMARK  251  A    between atoms: _603  and  _604
REMARK  252  A    between atoms: _604  and  _605
REMARK  253  A    between atoms: _610  and  _612
REMARK  254  A    between atoms: _612  and  _613
REMARK  255  A    between atoms: _612  and  _615
REMARK  256  A    between atoms: _619  and  _620
REMARK  257  A    between atoms: _625  and  _627
REMARK  258  A    between atoms: _627  and  _628
REMARK  259  A    between atoms: _627  and  _630
REMARK  260  A    between atoms: _630  and  _631
REMARK                            x       y       z     vdW  Elec       q    Type
REMARK                         _______ _______ _______ _____ _____    ______ ____
ROOT
ATOM      1  C   ILE A   1      19.412  -2.516   7.884  0.00  0.00    +0.238 C 
ATOM      2  N   ALA A   2      19.651  -1.805   8.984  0.00  0.00    -0.298 N 
ATOM      3  H   ALA A   2      18.855  -1.395   9.513  0.00  0.00    +0.150 HD
ATOM      4  O   ILE A   1      20.306  -3.027   7.218  0.00  0.00    -0.274 OA
ENDROOT
BRANCH   2   5
ATOM      5  CA  ALA A   2      21.016  -1.593   9.458  0.00  0.00    +0.137 C 
ATOM      6  CB  ALA A   2      21.019  -0.723  10.717  0.00  0.00    +0.030 C 
BRANCH   5   7
ATOM      7  C   ALA A   2      21.676  -2.941   9.752  0.00  0.00    +0.227 C 
ATOM      8  O   ALA A   2      22.878  -3.105   9.541  0.00  0.00    -0.286 OA
ENDBRANCH   5   7
ENDBRANCH   2   5
BRANCH   1   9
ATOM      9  CA  ILE A   1      17.952  -2.697   7.477  0.00  0.00    +0.145 C 
BRANCH   9  10
ATOM     10  N   ILE A   1      17.171  -3.119   8.630  0.00  0.00    -0.238 NA
ATOM     11  H   ILE A   1      16.480  -2.462   9.046  0.00  0.00    +0.142 HD
ENDBRANCH   9  10
BRANCH   9  12
ATOM     12  CB  ILE A   1      17.415  -1.380   6.881  0.00  0.00    +0.025 C 
ATOM     13  CG2 ILE A   1      18.278  -0.953   5.701  0.00  0.00    +0.002 C 
BRANCH  12  14
ATOM     14  CG1 ILE A   1      15.958  -1.578   6.442  0.00  0.00    +0.002 C 
ATOM     15  CD1 ILE A   1      15.310  -0.346   5.834  0.00  0.00    +0.000 C 
ENDBRANCH  12  14
ENDBRANCH   9  12
ENDBRANCH   1   9
TORSDOF 6
REMARK  Name = ../refined-set-2016/3b66/3b66_pocket.pdb
REMARK  260 active torsions:
REMARK  status: ('A' for Active; 'I' for Inactive)
REMARK    1  A    between atoms: _1  and  _3
REMARK    2  A    between atoms: _3  and  _4
REMARK    3  A    between atoms: _3  and  _6
REMARK    4  A    between atoms: _9  and  _11
REMARK    5  A    between atoms: _11  and  _12
REMARK    6  A    between atoms: _15  and  _17
REMARK    7  A    between atoms: _17  and  _18
REMARK    8  A    between atoms: _17  and  _20
REMARK    9  A    between atoms: _20  and  _21
REMARK   10  A    between atoms: _24  and  _26
REMARK   11  A    between atoms: _26  and  _27
REMARK   12  A    between atoms: _26  and  _29
REMARK   13  A    between atoms: _29  and  _30
REMARK   14  A    between atoms: _33  and  _35
REMARK   15  A    between atoms: _35  and  _36
REMARK   16  A    between atoms: _35  and  _38
REMARK   17  A    between atoms: _38  and  _39
REMARK   18  A    between atoms: _41  and  _43
REMARK   19  A    between atoms: _43  and  _44
REMARK   20  A    between atoms: _43  and  _46
REMARK   21  A    between atoms: _46  and  _47
REMARK   22  A    between atoms: _49  and  _51
REMARK   23  A    between atoms: _51  and  _52
REMARK   24  A    between atoms: _51  and  _54
REMARK   25  A    between atoms: _54  and  _55
REMARK   26  A    between atoms: _58  and  _60
REMARK   27  A    between atoms: _60  and  _61
REMARK   28  A    between atoms: _60  and  _63
REMARK   29  A    between atoms: _63  and  _64
REMARK   30  A    between atoms: _69  and  _71
REMARK   31  A    between atoms: _71  and  _72
REMARK   32  A    between atoms: _71  and  _74
REMARK   33  A    between atoms: _74  and  _75
REMARK   34  A    between atoms: _75  and  _76
REMARK   35  A    between atoms: _79  and  _81
REMARK   36  A    between atoms: _81  and  _82
REMARK   37  A    between atoms: _81  and  _84
REMARK   38  A    between atoms: _84  and  _85
REMARK   39  A    between atoms: _88  and  _90
REMARK   40  A    between atoms: _90  and  _91
REMARK   41  A    between atoms: _93  and  _95
REMARK   42  A    between atoms: _95  and  _96
REMARK   43  A    between atoms: _95  and  _98
REMARK   44  A    between atoms: _98  and  _99
REMARK   45  A    between atoms: _99  and  _100
REMARK   46  A    between atoms: _103  and  _105
REMARK   47  A    between atoms: _105  and  _106
REMARK   48  A    between atoms: _105  and  _108
REMARK   49  A    between atoms: _108  and  _109
REMARK   50  A    between atoms: _109  and  _110
REMARK   51  A    between atoms: _110  and  _111
REMARK   52  A    between atoms: _120  and  _122
REMARK   53  A    between atoms: _122  and  _123
REMARK   54  A    between atoms: _122  and  _125
REMARK   55  A    between atoms: _125  and  _126
REMARK   56  A    between atoms: _126  and  _127
REMARK   57  A    between atoms: _132  and  _134
REMARK   58  A    between atoms: _134  and  _135
REMARK   59  A    between atoms: _134  and  _137
REMARK   60  A    between atoms: _137  and  _138
REMARK   61  A    between atoms: _141  and  _143
REMARK   62  A    between atoms: _143  and  _144
REMARK   63  A    between atoms: _143  and  _146
REMARK   64  A    between atoms: _146  and  _147
REMARK   65  A    between atoms: _150  and  _152
REMARK   66  A    between atoms: _152  and  _153
REMARK   67  A    between atoms: _152  and  _155
REMARK   68  A    between atoms: _155  and  _156
REMARK   69  A    between atoms: _156  and  _157
REMARK   70  A    between atoms: _162  and  _164
REMARK   71  A    between atoms: _164  and  _165
REMARK   72  A    between atoms: _164  and  _167
REMARK   73  A    between atoms: _167  and  _168
REMARK   74  A    between atoms: _173  and  _174
REMARK   75  A    between atoms: _176  and  _178
REMARK   76  A    between atoms: _178  and  _179
REMARK   77  A    between atoms: _178  and  _181
REMARK   78  A    between atoms: _181  and  _182
REMARK   79  A    between atoms: _184  and  _186
REMARK   80  A    between atoms: _186  and  _187
REMARK   81  A    between atoms: _186  and  _189
REMARK   82  A    between atoms: _189  and  _190
REMARK   83  A    between atoms: _200  and  _202
REMARK   84  A    between atoms: _202  and  _203
REMARK   85  A    between atoms: _202  and  _205
REMARK   86  A    between atoms: _205  and  _206
REMARK   87  A    between atoms: _206  and  _207
REMARK   88  A    between atoms: _209  and  _211
REMARK   89  A    between atoms: _211  and  _212
REMARK   90  A    between atoms: _214  and  _216
REMARK   91  A    between atoms: _216  and  _217
REMARK   92  A    between atoms: _216  and  _219
REMARK   93  A    between atoms: _219  and  _220
REMARK   94  A    between atoms: _223  and  _225
REMARK   95  A    between atoms: _225  and  _226
REMARK   96  A    between atoms: _225  and  _228
REMARK   97  A    between atoms: _228  and  _229
REMARK   98  A    between atoms: _229  and  _230
REMARK   99  A    between atoms: _232  and  _234
REMARK  100  A    between atoms: _234  and  _235
REMARK  101  A    between atoms: _234  and  _237
REMARK  102  A    between atoms: _240  and  _242
REMARK  103  A    between atoms: _242  and  _243
REMARK  104  A    between atoms: _242  and  _245
REMARK  105  A    between atoms: _245  and  _246
REMARK  106  A    between atoms: _252  and  _254
REMARK  107  A    between atoms: _254  and  _255
REMARK  108  A    between atoms: _258  and  _260
REMARK  109  A    between atoms: _260  and  _261
REMARK  110  A    between atoms: _260  and  _263
REMARK  111  A    between atoms: _263  and  _264
REMARK  112  A    between atoms: _264  and  _265
REMARK  113  A    between atoms: _267  and  _269
REMARK  114  A    between atoms: _269  and  _270
REMARK  115  A    between atoms: _272  and  _274
REMARK  116  A    between atoms: _274  and  _275
REMARK  117  A    between atoms: _274  and  _277
REMARK  118  A    between atoms: _277  and  _278
REMARK  119  A    between atoms: _288  and  _290
REMARK  120  A    between atoms: _290  and  _291
REMARK  121  A    between atoms: _290  and  _293
REMARK  122  A    between atoms: _293  and  _294
REMARK  123  A    between atoms: _294  and  _295
REMARK  124  A    between atoms: _295  and  _296
REMARK  125  A    between atoms: _305  and  _307
REMARK  126  A    between atoms: _307  and  _308
REMARK  127  A    between atoms: _307  and  _310
REMARK  128  A    between atoms: _310  and  _311
REMARK  129  A    between atoms: _313  and  _315
REMARK  130  A    between atoms: _315  and  _316
REMARK  131  A    between atoms: _315  and  _318
REMARK  132  A    between atoms: _318  and  _319
REMARK  133  A    between atoms: _322  and  _324
REMARK  134  A    between atoms: _324  and  _325
REMARK  135  A    between atoms: _324  and  _327
REMARK  136  A    between atoms: _327  and  _328
REMARK  137  A    between atoms: _333  and  _334
REMARK  138  A    between atoms: _336  and  _338
REMARK  139  A    between atoms: _338  and  _339
REMARK  140  A    between atoms: _338  and  _341
REMARK  141  A    between atoms: _341  and  _342
REMARK  142  A    between atoms: _348  and  _350
REMARK  143  A    between atoms: _350  and  _351
REMARK  144  A    between atoms: _354  and  _356
REMARK  145  A    between atoms: _356  and  _357
REMARK  146  A    between atoms: _356  and  _359
REMARK  147  A    between atoms: _359  and  _360
REMARK  148  A    between atoms: _363  and  _365
REMARK  149  A    between atoms: _365  and  _366
REMARK  150  A    between atoms: _365  and  _368
REMARK  151  A    between atoms: _368  and  _369
REMARK  152  A    between atoms: _371  and  _373
REMARK  153  A    between atoms: _373  and  _374
REMARK  154  A    between atoms: _373  and  _376
REMARK  155  A    between atoms: _376  and  _377
REMARK  156  A    between atoms: _377  and  _378
REMARK  157  A    between atoms: _380  and  _382
REMARK  158  A    between atoms: _382  and  _383
REMARK  159  A    between atoms: _382  and  _385
REMARK  160  A    between atoms: _385  and  _386
REMARK  161  A    between atoms: _386  and  _387
REMARK  162  A    between atoms: _392  and  _394
REMARK  163  A    between atoms: _394  and  _395
REMARK  164  A    between atoms: _394  and  _397
REMARK  165  A    between atoms: _399  and  _401
REMARK  166  A    between atoms: _401  and  _402
REMARK  167  A    between atoms: _401  and  _404
REMARK  168  A    between atoms: _404  and  _405
REMARK  169  A    between atoms: _405  and  _406
REMARK  170  A    between atoms: _408  and  _410
REMARK  171  A    between atoms: _410  and  _411
REMARK  172  A    between atoms: _410  and  _413
REMARK  173  A    between atoms: _413  and  _414
REMARK  174  A    between atoms: _417  and  _419
REMARK  175  A    between atoms: _419  and  _420
REMARK  176  A    between atoms: _423  and  _425
REMARK  177  A    between atoms: _425  and  _426
REMARK  178  A    between atoms: _425  and  _428
REMARK  179  A    between atoms: _428  and  _429
REMARK  180  A    between atoms: _432  and  _434
REMARK  181  A    between atoms: _434  and  _435
REMARK  182  A    between atoms: _434  and  _437
REMARK  183  A    between atoms: _437  and  _438
REMARK  184  A    between atoms: _443  and  _445
REMARK  185  A    between atoms: _445  and  _446
REMARK  186  A    between atoms: _445  and  _448
REMARK  187  A    between atoms: _448  and  _449
REMARK  188  A    between atoms: _455  and  _457
REMARK  189  A    between atoms: _457  and  _458
REMARK  190  A    between atoms: _457  and  _460
REMARK  191  A    between atoms: _460  and  _461
REMARK  192  A    between atoms: _464  and  _466
REMARK  193  A    between atoms: _466  and  _467
REMARK  194  A    between atoms: _466  and  _469
REMARK  195  A    between atoms: _469  and  _470
REMARK  196  A    between atoms: _476  and  _478
REMARK  197  A    between atoms: _478  and  _479
REMARK  198  A    between atoms: _478  and  _481
REMARK  199  A    between atoms: _481  and  _482
REMARK  200  A    between atoms: _485  and  _487
REMARK  201  A    between atoms: _487  and  _488
REMARK  202  A    between atoms: _487  and  _490
REMARK  203  A    between atoms: _490  and  _491
REMARK  204  A    between atoms: _494  and  _496
REMARK  205  A    between atoms: _496  and  _497
REMARK  206  A    between atoms: _496  and  _499
REMARK  207  A    between atoms: _502  and  _504
REMARK  208  A    between atoms: _504  and  _505
REMARK  209  A    between atoms: _504  and  _507
REMARK  210  A    between atoms: _507  and  _508
REMARK  211  A    between atoms: _511  and  _513
REMARK  212  A    between atoms: _513  and  _514
REMARK  213  A    between atoms: _513  and  _516
REMARK  214  A    between atoms: _516  and  _517
REMARK  215  A    between atoms: _524  and  _525
REMARK  216  A    between atoms: _530  and  _532
REMARK  217  A    between atoms: _532  and  _533
REMARK  218  A    between atoms: _532  and  _535
REMARK  219  A    between atoms: _535  and  _536
REMARK  220  A    between atoms: _536  and  _537
REMARK  221  A    between atoms: _539  and  _541
REMARK  222  A    between atoms: _541  and  _542
REMARK  223  A    between atoms: _541  and  _544
REMARK  224  A    between atoms: _544  and  _545
REMARK  225  A    between atoms: _545  and  _546
REMARK  226  A    between atoms: _548  and  _550
REMARK  227  A    between atoms: _550  and  _551
REMARK  228  A    between atoms: _554  and  _556
REMARK  229  A    between atoms: _556  and  _557
REMARK  230  A    between atoms: _556  and  _559
REMARK  231  A    between atoms: _559  and  _560
REMARK  232  A    between atoms: _560  and  _561
REMARK  233  A    between atoms: _564  and  _566
REMARK  234  A    between atoms: _566  and  _567
REMARK  235  A    between atoms: _566  and  _569
REMARK  236  A    between atoms: _569  and  _570
REMARK  237  A    between atoms: _573  and  _575
REMARK  238  A    between atoms: _575  and  _576
REMARK  239  A    between atoms: _575  and  _578
REMARK  240  A    between atoms: _578  and  _579
REMARK  241  A    between atoms: _582  and  _584
REMARK  242  A    between atoms: _584  and  _585
REMARK  243  A    between atoms: _584  and  _587
REMARK  244  A    between atoms: _587  and  _588
REMARK  245  A    between atoms: _590  and  _592
REMARK  246  A    between atoms: _592  and  _593
REMARK  247  A    between atoms: _592  and  _595
REMARK  248  A    between atoms: _598  and  _600
REMARK  249  A    between atoms: _600  and  _601
REMARK  250  A    between atoms: _600  and  _603
REMARK  251  A    between atoms: _603  and  _604
REMARK  252  A    between atoms: _604  and  _605
REMARK  253  A    between atoms: _610  and  _612
REMARK  254  A    between atoms: _612  and  _613
REMARK  255  A    between atoms: _612  and  _615
REMARK  256  A    between atoms: _619  and  _620
REMARK  257  A    between atoms: _625  and  _627
REMARK  258  A    between atoms: _627  and  _628
REMARK  259  A    between atoms: _627  and  _630
REMARK  260  A    between atoms: _630  and  _631
REMARK                            x       y       z     vdW  Elec       q    Type
REMARK                         _______ _______ _______ _____ _____    ______ ____
ROOT
ATOM      1  C   LEU A   1      25.330  -4.118   7.075  0.00  0.00    +0.238 C 
ATOM      2  N   HIS A   2      25.087  -4.283   8.373  0.00  0.00    -0.298 N 
ATOM      3  H   HIS A   2      24.124  -4.138   8.738  0.00  0.00    +0.150 HD
ATOM      4  O   LEU A   1      26.459  -4.239   6.590  0.00  0.00    -0.274 OA
ENDROOT
BRANCH   1   5
ATOM      5  CA  LEU A   1      24.136  -3.763   6.188  0.00  0.00    +0.145 C 
BRANCH   5   6
ATOM      6  N   LEU A   1      22.944  -4.477   6.639  0.00  0.00    -0.238 NA
ATOM      7  H   LEU A   1      22.184  -3.962   7.128  0.00  0.00    +0.142 HD
ENDBRANCH   5   6
BRANCH   5   8
ATOM      8  CB  LEU A   1      23.879  -2.256   6.195  0.00  0.00    +0.026 C 
BRANCH   8   9
ATOM      9  CG  LEU A   1      22.895  -1.753   5.129  0.00  0.00    +0.002 C 
ATOM     10  CD2 LEU A   1      22.526  -0.317   5.418  0.00  0.00    +0.000 C 
ATOM     11  CD1 LEU A   1      23.518  -1.873   3.744  0.00  0.00    +0.000 C 
ENDBRANCH   8   9
ENDBRANCH   5   8
ENDBRANCH   1   5
BRANCH   2  12
ATOM     12  CA  HIS A   2      26.161  -4.666   9.293  0.00  0.00    +0.143 C 
BRANCH  12  13
ATOM     13  C   HIS A   2      26.715  -6.029   8.891  0.00  0.00    +0.227 C 
ATOM     14  O   HIS A   2      27.929  -6.229   8.855  0.00  0.00    -0.286 OA
ENDBRANCH  12  13
BRANCH  12  15
ATOM     15  CB  HIS A   2      25.644  -4.755  10.732  0.00  0.00    +0.075 C 
BRANCH  15  16
ATOM     16  CG  HIS A   2      25.588  -3.436  11.440  0.00  0.00    +0.082 A 
ATOM     17  ND1 HIS A   2      24.580  -3.110  12.323  0.00  0.00    -0.227 NA
ATOM     18  CE1 HIS A   2      24.801  -1.903  12.812  0.00  0.00    +0.199 A 
ATOM     19  NE2 HIS A   2      25.916  -1.435  12.280  0.00  0.00    -0.221 NA
ATOM     20  CD2 HIS A   2      26.428  -2.374  11.418  0.00  0.00    +0.115 A 
ENDBRANCH  15  16
ENDBRANCH  12  15
ENDBRANCH   2  12
TORSDOF 8
REMARK  Name = ../refined-set-2016/3b66/3b66_pocket.pdb
REMARK  260 active torsions:
REMARK  status: ('A' for Active; 'I' for Inactive)
REMARK    1  A    between atoms: _1  and  _3
REMARK    2  A    between atoms: _3  and  _4
REMARK    3  A    between atoms: _3  and  _6
REMARK    4  A    between atoms: _9  and  _11
REMARK    5  A    between atoms: _11  and  _12
REMARK    6  A    between atoms: _15  and  _17
REMARK    7  A    between atoms: _17  and  _18
REMARK    8  A    between atoms: _17  and  _20
REMARK    9  A    between atoms: _20  and  _21
REMARK   10  A    between atoms: _24  and  _26
REMARK   11  A    between atoms: _26  and  _27
REMARK   12  A    between atoms: _26  and  _29
REMARK   13  A    between atoms: _29  and  _30
REMARK   14  A    between atoms: _33  and  _35
REMARK   15  A    between atoms: _35  and  _36
REMARK   16  A    between atoms: _35  and  _38
REMARK   17  A    between atoms: _38  and  _39
REMARK   18  A    between atoms: _41  and  _43
REMARK   19  A    between atoms: _43  and  _44
REMARK   20  A    between atoms: _43  and  _46
REMARK   21  A    between atoms: _46  and  _47
REMARK   22  A    between atoms: _49  and  _51
REMARK   23  A    between atoms: _51  and  _52
REMARK   24  A    between atoms: _51  and  _54
REMARK   25  A    between atoms: _54  and  _55
REMARK   26  A    between atoms: _58  and  _60
REMARK   27  A    between atoms: _60  and  _61
REMARK   28  A    between atoms: _60  and  _63
REMARK   29  A    between atoms: _63  and  _64
REMARK   30  A    between atoms: _69  and  _71
REMARK   31  A    between atoms: _71  and  _72
REMARK   32  A    between atoms: _71  and  _74
REMARK   33  A    between atoms: _74  and  _75
REMARK   34  A    between atoms: _75  and  _76
REMARK   35  A    between atoms: _79  and  _81
REMARK   36  A    between atoms: _81  and  _82
REMARK   37  A    between atoms: _81  and  _84
REMARK   38  A    between atoms: _84  and  _85
REMARK   39  A    between atoms: _88  and  _90
REMARK   40  A    between atoms: _90  and  _91
REMARK   41  A    between atoms: _93  and  _95
REMARK   42  A    between atoms: _95  and  _96
REMARK   43  A    between atoms: _95  and  _98
REMARK   44  A    between atoms: _98  and  _99
REMARK   45  A    between atoms: _99  and  _100
REMARK   46  A    between atoms: _103  and  _105
REMARK   47  A    between atoms: _105  and  _106
REMARK   48  A    between atoms: _105  and  _108
REMARK   49  A    between atoms: _108  and  _109
REMARK   50  A    between atoms: _109  and  _110
REMARK   51  A    between atoms: _110  and  _111
REMARK   52  A    between atoms: _120  and  _122
REMARK   53  A    between atoms: _122  and  _123
REMARK   54  A    between atoms: _122  and  _125
REMARK   55  A    between atoms: _125  and  _126
REMARK   56  A    between atoms: _126  and  _127
REMARK   57  A    between atoms: _132  and  _134
REMARK   58  A    between atoms: _134  and  _135
REMARK   59  A    between atoms: _134  and  _137
REMARK   60  A    between atoms: _137  and  _138
REMARK   61  A    between atoms: _141  and  _143
REMARK   62  A    between atoms: _143  and  _144
REMARK   63  A    between atoms: _143  and  _146
REMARK   64  A    between atoms: _146  and  _147
REMARK   65  A    between atoms: _150  and  _152
REMARK   66  A    between atoms: _152  and  _153
REMARK   67  A    between atoms: _152  and  _155
REMARK   68  A    between atoms: _155  and  _156
REMARK   69  A    between atoms: _156  and  _157
REMARK   70  A    between atoms: _162  and  _164
REMARK   71  A    between atoms: _164  and  _165
REMARK   72  A    between atoms: _164  and  _167
REMARK   73  A    between atoms: _167  and  _168
REMARK   74  A    between atoms: _173  and  _174
REMARK   75  A    between atoms: _176  and  _178
REMARK   76  A    between atoms: _178  and  _179
REMARK   77  A    between atoms: _178  and  _181
REMARK   78  A    between atoms: _181  and  _182
REMARK   79  A    between atoms: _184  and  _186
REMARK   80  A    between atoms: _186  and  _187
REMARK   81  A    between atoms: _186  and  _189
REMARK   82  A    between atoms: _189  and  _190
REMARK   83  A    between atoms: _200  and  _202
REMARK   84  A    between atoms: _202  and  _203
REMARK   85  A    between atoms: _202  and  _205
REMARK   86  A    between atoms: _205  and  _206
REMARK   87  A    between atoms: _206  and  _207
REMARK   88  A    between atoms: _209  and  _211
REMARK   89  A    between atoms: _211  and  _212
REMARK   90  A    between atoms: _214  and  _216
REMARK   91  A    between atoms: _216  and  _217
REMARK   92  A    between atoms: _216  and  _219
REMARK   93  A    between atoms: _219  and  _220
REMARK   94  A    between atoms: _223  and  _225
REMARK   95  A    between atoms: _225  and  _226
REMARK   96  A    between atoms: _225  and  _228
REMARK   97  A    between atoms: _228  and  _229
REMARK   98  A    between atoms: _229  and  _230
REMARK   99  A    between atoms: _232  and  _234
REMARK  100  A    between atoms: _234  and  _235
REMARK  101  A    between atoms: _234  and  _237
REMARK  102  A    between atoms: _240  and  _242
REMARK  103  A    between atoms: _242  and  _243
REMARK  104  A    between atoms: _242  and  _245
REMARK  105  A    between atoms: _245  and  _246
REMARK  106  A    between atoms: _252  and  _254
REMARK  107  A    between atoms: _254  and  _255
REMARK  108  A    between atoms: _258  and  _260
REMARK  109  A    between atoms: _260  and  _261
REMARK  110  A    between atoms: _260  and  _263
REMARK  111  A    between atoms: _263  and  _264
REMARK  112  A    between atoms: _264  and  _265
REMARK  113  A    between atoms: _267  and  _269
REMARK  114  A    between atoms: _269  and  _270
REMARK  115  A    between atoms: _272  and  _274
REMARK  116  A    between atoms: _274  and  _275
REMARK  117  A    between atoms: _274  and  _277
REMARK  118  A    between atoms: _277  and  _278
REMARK  119  A    between atoms: _288  and  _290
REMARK  120  A    between atoms: _290  and  _291
REMARK  121  A    between atoms: _290  and  _293
REMARK  122  A    between atoms: _293  and  _294
REMARK  123  A    between atoms: _294  and  _295
REMARK  124  A    between atoms: _295  and  _296
REMARK  125  A    between atoms: _305  and  _307
REMARK  126  A    between atoms: _307  and  _308
REMARK  127  A    between atoms: _307  and  _310
REMARK  128  A    between atoms: _310  and  _311
REMARK  129  A    between atoms: _313  and  _315
REMARK  130  A    between atoms: _315  and  _316
REMARK  131  A    between atoms: _315  and  _318
REMARK  132  A    between atoms: _318  and  _319
REMARK  133  A    between atoms: _322  and  _324
REMARK  134  A    between atoms: _324  and  _325
REMARK  135  A    between atoms: _324  and  _327
REMARK  136  A    between atoms: _327  and  _328
REMARK  137  A    between atoms: _333  and  _334
REMARK  138  A    between atoms: _336  and  _338
REMARK  139  A    between atoms: _338  and  _339
REMARK  140  A    between atoms: _338  and  _341
REMARK  141  A    between atoms: _341  and  _342
REMARK  142  A    between atoms: _348  and  _350
REMARK  143  A    between atoms: _350  and  _351
REMARK  144  A    between atoms: _354  and  _356
REMARK  145  A    between atoms: _356  and  _357
REMARK  146  A    between atoms: _356  and  _359
REMARK  147  A    between atoms: _359  and  _360
REMARK  148  A    between atoms: _363  and  _365
REMARK  149  A    between atoms: _365  and  _366
REMARK  150  A    between atoms: _365  and  _368
REMARK  151  A    between atoms: _368  and  _369
REMARK  152  A    between atoms: _371  and  _373
REMARK  153  A    between atoms: _373  and  _374
REMARK  154  A    between atoms: _373  and  _376
REMARK  155  A    between atoms: _376  and  _377
REMARK  156  A    between atoms: _377  and  _378
REMARK  157  A    between atoms: _380  and  _382
REMARK  158  A    between atoms: _382  and  _383
REMARK  159  A    between atoms: _382  and  _385
REMARK  160  A    between atoms: _385  and  _386
REMARK  161  A    between atoms: _386  and  _387
REMARK  162  A    between atoms: _392  and  _394
REMARK  163  A    between atoms: _394  and  _395
REMARK  164  A    between atoms: _394  and  _397
REMARK  165  A    between atoms: _399  and  _401
REMARK  166  A    between atoms: _401  and  _402
REMARK  167  A    between atoms: _401  and  _404
REMARK  168  A    between atoms: _404  and  _405
REMARK  169  A    between atoms: _405  and  _406
REMARK  170  A    between atoms: _408  and  _410
REMARK  171  A    between atoms: _410  and  _411
REMARK  172  A    between atoms: _410  and  _413
REMARK  173  A    between atoms: _413  and  _414
REMARK  174  A    between atoms: _417  and  _419
REMARK  175  A    between atoms: _419  and  _420
REMARK  176  A    between atoms: _423  and  _425
REMARK  177  A    between atoms: _425  and  _426
REMARK  178  A    between atoms: _425  and  _428
REMARK  179  A    between atoms: _428  and  _429
REMARK  180  A    between atoms: _432  and  _434
REMARK  181  A    between atoms: _434  and  _435
REMARK  182  A    between atoms: _434  and  _437
REMARK  183  A    between atoms: _437  and  _438
REMARK  184  A    between atoms: _443  and  _445
REMARK  185  A    between atoms: _445  and  _446
REMARK  186  A    between atoms: _445  and  _448
REMARK  187  A    between atoms: _448  and  _449
REMARK  188  A    between atoms: _455  and  _457
REMARK  189  A    between atoms: _457  and  _458
REMARK  190  A    between atoms: _457  and  _460
REMARK  191  A    between atoms: _460  and  _461
REMARK  192  A    between atoms: _464  and  _466
REMARK  193  A    between atoms: _466  and  _467
REMARK  194  A    between atoms: _466  and  _469
REMARK  195  A    between atoms: _469  and  _470
REMARK  196  A    between atoms: _476  and  _478
REMARK  197  A    between atoms: _478  and  _479
REMARK  198  A    between atoms: _478  and  _481
REMARK  199  A    between atoms: _481  and  _482
REMARK  200  A    between atoms: _485  and  _487
REMARK  201  A    between atoms: _487  and  _488
REMARK  202  A    between atoms: _487  and  _490
REMARK  203  A    between atoms: _490  and  _491
REMARK  204  A    between atoms: _494  and  _496
REMARK  205  A    between atoms: _496  and  _497
REMARK  206  A    between atoms: _496  and  _499
REMARK  207  A    between atoms: _502  and  _504
REMARK  208  A    between atoms: _504  and  _505
REMARK  209  A    between atoms: _504  and  _507
REMARK  210  A    between atoms: _507  and  _508
REMARK  211  A    between atoms: _511  and  _513
REMARK  212  A    between atoms: _513  and  _514
REMARK  213  A    between atoms: _513  and  _516
REMARK  214  A    between atoms: _516  and  _517
REMARK  215  A    between atoms: _524  and  _525
REMARK  216  A    between atoms: _530  and  _532
REMARK  217  A    between atoms: _532  and  _533
REMARK  218  A    between atoms: _532  and  _535
REMARK  219  A    between atoms: _535  and  _536
REMARK  220  A    between atoms: _536  and  _537
REMARK  221  A    between atoms: _539  and  _541
REMARK  222  A    between atoms: _541  and  _542
REMARK  223  A    between atoms: _541  and  _544
REMARK  224  A    between atoms: _544  and  _545
REMARK  225  A    between atoms: _545  and  _546
REMARK  226  A    between atoms: _548  and  _550
REMARK  227  A    between atoms: _550  and  _551
REMARK  228  A    between atoms: _554  and  _556
REMARK  229  A    between atoms: _556  and  _557
REMARK  230  A    between atoms: _556  and  _559
REMARK  231  A    between atoms: _559  and  _560
REMARK  232  A    between atoms: _560  and  _561
REMARK  233  A    between atoms: _564  and  _566
REMARK  234  A    between atoms: _566  and  _567
REMARK  235  A    between atoms: _566  and  _569
REMARK  236  A    between atoms: _569  and  _570
REMARK  237  A    between atoms: _573  and  _575
REMARK  238  A    between atoms: _575  and  _576
REMARK  239  A    between atoms: _575  and  _578
REMARK  240  A    between atoms: _578  and  _579
REMARK  241  A    between atoms: _582  and  _584
REMARK  242  A    between atoms: _584  and  _585
REMARK  243  A    between atoms: _584  and  _587
REMARK  244  A    between atoms: _587  and  _588
REMARK  245  A    between atoms: _590  and  _592
REMARK  246  A    between atoms: _592  and  _593
REMARK  247  A    between atoms: _592  and  _595
REMARK  248  A    between atoms: _598  and  _600
REMARK  249  A    between atoms: _600  and  _601
REMARK  250  A    between atoms: _600  and  _603
REMARK  251  A    between atoms: _603  and  _604
REMARK  252  A    between atoms: _604  and  _605
REMARK  253  A    between atoms: _610  and  _612
REMARK  254  A    between atoms: _612  and  _613
REMARK  255  A    between atoms: _612  and  _615
REMARK  256  A    between atoms: _619  and  _620
REMARK  257  A    between atoms: _625  and  _627
REMARK  258  A    between atoms: _627  and  _628
REMARK  259  A    between atoms: _627  and  _630
REMARK  260  A    between atoms: _630  and  _631
REMARK                            x       y       z     vdW  Elec       q    Type
REMARK                         _______ _______ _______ _____ _____    ______ ____
ROOT
ATOM      1  CA  THR A   2      29.894  -4.950   5.869  0.00  0.00    +0.176 C 
ENDROOT
BRANCH   1   3
ATOM      2  C   PHE A   1      28.587  -6.739   4.871  0.00  0.00    +0.239 C 
ATOM      3  N   THR A   2      28.636  -5.642   5.622  0.00  0.00    -0.295 N 
ATOM      4  H   THR A   2      27.759  -5.271   6.041  0.00  0.00    +0.150 HD
ATOM      5  O   PHE A   1      29.583  -7.250   4.362  0.00  0.00    -0.274 OA
BRANCH   2   6
ATOM      6  CA  PHE A   1      27.215  -7.357   4.674  0.00  0.00    +0.149 C 
BRANCH   6   7
ATOM      7  N   PHE A   1      26.536  -7.503   5.951  0.00  0.00    -0.238 NA
ATOM      8  H   PHE A   1      25.634  -7.009   6.106  0.00  0.00    +0.142 HD
ENDBRANCH   6   7
BRANCH   6   9
ATOM      9  CB  PHE A   1      26.377  -6.486   3.730  0.00  0.00    +0.053 C 
BRANCH   9  10
ATOM     10  CG  PHE A   1      27.108  -6.051   2.491  0.00  0.00    -0.020 A 
ATOM     11  CD2 PHE A   1      27.818  -4.852   2.474  0.00  0.00    -0.004 A 
ATOM     12  CE2 PHE A   1      28.510  -4.449   1.335  0.00  0.00    -0.000 A 
ATOM     13  CZ  PHE A   1      28.495  -5.252   0.198  0.00  0.00    -0.000 A 
ATOM     14  CE1 PHE A   1      27.789  -6.452   0.205  0.00  0.00    -0.000 A 
ATOM     15  CD1 PHE A   1      27.100  -6.844   1.348  0.00  0.00    -0.004 A 
ENDBRANCH   9  10
ENDBRANCH   6   9
ENDBRANCH   2   6
ENDBRANCH   1   3
BRANCH   1  16
ATOM     16  C   THR A   2      30.887  -5.858   6.579  0.00  0.00    +0.243 C 
ATOM     17  N   PHE A   3      30.400  -6.618   7.554  0.00  0.00    -0.298 N 
ATOM     18  H   PHE A   3      29.391  -6.552   7.796  0.00  0.00    +0.150 HD
ATOM     19  O   THR A   2      32.074  -5.863   6.254  0.00  0.00    -0.273 OA
BRANCH  17  20
ATOM     20  CA  PHE A   3      31.255  -7.544   8.292  0.00  0.00    +0.141 C 
BRANCH  20  21
ATOM     21  C   PHE A   3      31.860  -8.571   7.335  0.00  0.00    +0.227 C 
ATOM     22  O   PHE A   3      33.075  -8.742   7.281  0.00  0.00    -0.286 OA
ENDBRANCH  20  21
BRANCH  20  23
ATOM     23  CB  PHE A   3      30.450  -8.284   9.361  0.00  0.00    +0.054 C 
BRANCH  23  24
ATOM     24  CG  PHE A   3      31.250  -9.306  10.115  0.00  0.00    -0.020 A 
ATOM     25  CD2 PHE A   3      32.137  -8.918  11.117  0.00  0.00    -0.004 A 
ATOM     26  CE2 PHE A   3      32.898  -9.877  11.808  0.00  0.00    -0.000 A 
ATOM     27  CZ  PHE A   3      32.769 -11.221  11.493  0.00  0.00    -0.000 A 
ATOM     28  CE1 PHE A   3      31.887 -11.618  10.493  0.00  0.00    -0.000 A 
ATOM     29  CD1 PHE A   3      31.133 -10.658   9.810  0.00  0.00    -0.004 A 
ENDBRANCH  23  24
ENDBRANCH  20  23
ENDBRANCH  17  20
ENDBRANCH   1  16
BRANCH   1  30
ATOM     30  CB  THR A   2      29.682  -3.684   6.723  0.00  0.00    +0.137 C 
ATOM     31  CG2 THR A   2      30.956  -2.872   6.772  0.00  0.00    +0.034 C 
BRANCH  30  32
ATOM     32  OG1 THR A   2      28.646  -2.883   6.140  0.00  0.00    -0.382 OA
ATOM     33  HG1 THR A   2      27.805  -3.405   6.108  0.00  0.00    +0.210 HD
ENDBRANCH  30  32
ENDBRANCH   1  30
TORSDOF 12
REMARK  Name = ../refined-set-2016/3b66/3b66_pocket.pdb
REMARK  260 active torsions:
REMARK  status: ('A' for Active; 'I' for Inactive)
REMARK    1  A    between atoms: _1  and  _3
REMARK    2  A    between atoms: _3  and  _4
REMARK    3  A    between atoms: _3  and  _6
REMARK    4  A    between atoms: _9  and  _11
REMARK    5  A    between atoms: _11  and  _12
REMARK    6  A    between atoms: _15  and  _17
REMARK    7  A    between atoms: _17  and  _18
REMARK    8  A    between atoms: _17  and  _20
REMARK    9  A    between atoms: _20  and  _21
REMARK   10  A    between atoms: _24  and  _26
REMARK   11  A    between atoms: _26  and  _27
REMARK   12  A    between atoms: _26  and  _29
REMARK   13  A    between atoms: _29  and  _30
REMARK   14  A    between atoms: _33  and  _35
REMARK   15  A    between atoms: _35  and  _36
REMARK   16  A    between atoms: _35  and  _38
REMARK   17  A    between atoms: _38  and  _39
REMARK   18  A    between atoms: _41  and  _43
REMARK   19  A    between atoms: _43  and  _44
REMARK   20  A    between atoms: _43  and  _46
REMARK   21  A    between atoms: _46  and  _47
REMARK   22  A    between atoms: _49  and  _51
REMARK   23  A    between atoms: _51  and  _52
REMARK   24  A    between atoms: _51  and  _54
REMARK   25  A    between atoms: _54  and  _55
REMARK   26  A    between atoms: _58  and  _60
REMARK   27  A    between atoms: _60  and  _61
REMARK   28  A    between atoms: _60  and  _63
REMARK   29  A    between atoms: _63  and  _64
REMARK   30  A    between atoms: _69  and  _71
REMARK   31  A    between atoms: _71  and  _72
REMARK   32  A    between atoms: _71  and  _74
REMARK   33  A    between atoms: _74  and  _75
REMARK   34  A    between atoms: _75  and  _76
REMARK   35  A    between atoms: _79  and  _81
REMARK   36  A    between atoms: _81  and  _82
REMARK   37  A    between atoms: _81  and  _84
REMARK   38  A    between atoms: _84  and  _85
REMARK   39  A    between atoms: _88  and  _90
REMARK   40  A    between atoms: _90  and  _91
REMARK   41  A    between atoms: _93  and  _95
REMARK   42  A    between atoms: _95  and  _96
REMARK   43  A    between atoms: _95  and  _98
REMARK   44  A    between atoms: _98  and  _99
REMARK   45  A    between atoms: _99  and  _100
REMARK   46  A    between atoms: _103  and  _105
REMARK   47  A    between atoms: _105  and  _106
REMARK   48  A    between atoms: _105  and  _108
REMARK   49  A    between atoms: _108  and  _109
REMARK   50  A    between atoms: _109  and  _110
REMARK   51  A    between atoms: _110  and  _111
REMARK   52  A    between atoms: _120  and  _122
REMARK   53  A    between atoms: _122  and  _123
REMARK   54  A    between atoms: _122  and  _125
REMARK   55  A    between atoms: _125  and  _126
REMARK   56  A    between atoms: _126  and  _127
REMARK   57  A    between atoms: _132  and  _134
REMARK   58  A    between atoms: _134  and  _135
REMARK   59  A    between atoms: _134  and  _137
REMARK   60  A    between atoms: _137  and  _138
REMARK   61  A    between atoms: _141  and  _143
REMARK   62  A    between atoms: _143  and  _144
REMARK   63  A    between atoms: _143  and  _146
REMARK   64  A    between atoms: _146  and  _147
REMARK   65  A    between atoms: _150  and  _152
REMARK   66  A    between atoms: _152  and  _153
REMARK   67  A    between atoms: _152  and  _155
REMARK   68  A    between atoms: _155  and  _156
REMARK   69  A    between atoms: _156  and  _157
REMARK   70  A    between atoms: _162  and  _164
REMARK   71  A    between atoms: _164  and  _165
REMARK   72  A    between atoms: _164  and  _167
REMARK   73  A    between atoms: _167  and  _168
REMARK   74  A    between atoms: _173  and  _174
REMARK   75  A    between atoms: _176  and  _178
REMARK   76  A    between atoms: _178  and  _179
REMARK   77  A    between atoms: _178  and  _181
REMARK   78  A    between atoms: _181  and  _182
REMARK   79  A    between atoms: _184  and  _186
REMARK   80  A    between atoms: _186  and  _187
REMARK   81  A    between atoms: _186  and  _189
REMARK   82  A    between atoms: _189  and  _190
REMARK   83  A    between atoms: _200  and  _202
REMARK   84  A    between atoms: _202  and  _203
REMARK   85  A    between atoms: _202  and  _205
REMARK   86  A    between atoms: _205  and  _206
REMARK   87  A    between atoms: _206  and  _207
REMARK   88  A    between atoms: _209  and  _211
REMARK   89  A    between atoms: _211  and  _212
REMARK   90  A    between atoms: _214  and  _216
REMARK   91  A    between atoms: _216  and  _217
REMARK   92  A    between atoms: _216  and  _219
REMARK   93  A    between atoms: _219  and  _220
REMARK   94  A    between atoms: _223  and  _225
REMARK   95  A    between atoms: _225  and  _226
REMARK   96  A    between atoms: _225  and  _228
REMARK   97  A    between atoms: _228  and  _229
REMARK   98  A    between atoms: _229  and  _230
REMARK   99  A    between atoms: _232  and  _234
REMARK  100  A    between atoms: _234  and  _235
REMARK  101  A    between atoms: _234  and  _237
REMARK  102  A    between atoms: _240  and  _242
REMARK  103  A    between atoms: _242  and  _243
REMARK  104  A    between atoms: _242  and  _245
REMARK  105  A    between atoms: _245  and  _246
REMARK  106  A    between atoms: _252  and  _254
REMARK  107  A    between atoms: _254  and  _255
REMARK  108  A    between atoms: _258  and  _260
REMARK  109  A    between atoms: _260  and  _261
REMARK  110  A    between atoms: _260  and  _263
REMARK  111  A    between atoms: _263  and  _264
REMARK  112  A    between atoms: _264  and  _265
REMARK  113  A    between atoms: _267  and  _269
REMARK  114  A    between atoms: _269  and  _270
REMARK  115  A    between atoms: _272  and  _274
REMARK  116  A    between atoms: _274  and  _275
REMARK  117  A    between atoms: _274  and  _277
REMARK  118  A    between atoms: _277  and  _278
REMARK  119  A    between atoms: _288  and  _290
REMARK  120  A    between atoms: _290  and  _291
REMARK  121  A    between atoms: _290  and  _293
REMARK  122  A    between atoms: _293  and  _294
REMARK  123  A    between atoms: _294  and  _295
REMARK  124  A    between atoms: _295  and  _296
REMARK  125  A    between atoms: _305  and  _307
REMARK  126  A    between atoms: _307  and  _308
REMARK  127  A    between atoms: _307  and  _310
REMARK  128  A    between atoms: _310  and  _311
REMARK  129  A    between atoms: _313  and  _315
REMARK  130  A    between atoms: _315  and  _316
REMARK  131  A    between atoms: _315  and  _318
REMARK  132  A    between atoms: _318  and  _319
REMARK  133  A    between atoms: _322  and  _324
REMARK  134  A    between atoms: _324  and  _325
REMARK  135  A    between atoms: _324  and  _327
REMARK  136  A    between atoms: _327  and  _328
REMARK  137  A    between atoms: _333  and  _334
REMARK  138  A    between atoms: _336  and  _338
REMARK  139  A    between atoms: _338  and  _339
REMARK  140  A    between atoms: _338  and  _341
REMARK  141  A    between atoms: _341  and  _342
REMARK  142  A    between atoms: _348  and  _350
REMARK  143  A    between atoms: _350  and  _351
REMARK  144  A    between atoms: _354  and  _356
REMARK  145  A    between atoms: _356  and  _357
REMARK  146  A    between atoms: _356  and  _359
REMARK  147  A    between atoms: _359  and  _360
REMARK  148  A    between atoms: _363  and  _365
REMARK  149  A    between atoms: _365  and  _366
REMARK  150  A    between atoms: _365  and  _368
REMARK  151  A    between atoms: _368  and  _369
REMARK  152  A    between atoms: _371  and  _373
REMARK  153  A    between atoms: _373  and  _374
REMARK  154  A    between atoms: _373  and  _376
REMARK  155  A    between atoms: _376  and  _377
REMARK  156  A    between atoms: _377  and  _378
REMARK  157  A    between atoms: _380  and  _382
REMARK  158  A    between atoms: _382  and  _383
REMARK  159  A    between atoms: _382  and  _385
REMARK  160  A    between atoms: _385  and  _386
REMARK  161  A    between atoms: _386  and  _387
REMARK  162  A    between atoms: _392  and  _394
REMARK  163  A    between atoms: _394  and  _395
REMARK  164  A    between atoms: _394  and  _397
REMARK  165  A    between atoms: _399  and  _401
REMARK  166  A    between atoms: _401  and  _402
REMARK  167  A    between atoms: _401  and  _404
REMARK  168  A    between atoms: _404  and  _405
REMARK  169  A    between atoms: _405  and  _406
REMARK  170  A    between atoms: _408  and  _410
REMARK  171  A    between atoms: _410  and  _411
REMARK  172  A    between atoms: _410  and  _413
REMARK  173  A    between atoms: _413  and  _414
REMARK  174  A    between atoms: _417  and  _419
REMARK  175  A    between atoms: _419  and  _420
REMARK  176  A    between atoms: _423  and  _425
REMARK  177  A    between atoms: _425  and  _426
REMARK  178  A    between atoms: _425  and  _428
REMARK  179  A    between atoms: _428  and  _429
REMARK  180  A    between atoms: _432  and  _434
REMARK  181  A    between atoms: _434  and  _435
REMARK  182  A    between atoms: _434  and  _437
REMARK  183  A    between atoms: _437  and  _438
REMARK  184  A    between atoms: _443  and  _445
REMARK  185  A    between atoms: _445  and  _446
REMARK  186  A    between atoms: _445  and  _448
REMARK  187  A    between atoms: _448  and  _449
REMARK  188  A    between atoms: _455  and  _457
REMARK  189  A    between atoms: _457  and  _458
REMARK  190  A    between atoms: _457  and  _460
REMARK  191  A    between atoms: _460  and  _461
REMARK  192  A    between atoms: _464  and  _466
REMARK  193  A    between atoms: _466  and  _467
REMARK  194  A    between atoms: _466  and  _469
REMARK  195  A    between atoms: _469  and  _470
REMARK  196  A    between atoms: _476  and  _478
REMARK  197  A    between atoms: _478  and  _479
REMARK  198  A    between atoms: _478  and  _481
REMARK  199  A    between atoms: _481  and  _482
REMARK  200  A    between atoms: _485  and  _487
REMARK  201  A    between atoms: _487  and  _488
REMARK  202  A    between atoms: _487  and  _490
REMARK  203  A    between atoms: _490  and  _491
REMARK  204  A    between atoms: _494  and  _496
REMARK  205  A    between atoms: _496  and  _497
REMARK  206  A    between atoms: _496  and  _499
REMARK  207  A    between atoms: _502  and  _504
REMARK  208  A    between atoms: _504  and  _505
REMARK  209  A    between atoms: _504  and  _507
REMARK  210  A    between atoms: _507  and  _508
REMARK  211  A    between atoms: _511  and  _513
REMARK  212  A    between atoms: _513  and  _514
REMARK  213  A    between atoms: _513  and  _516
REMARK  214  A    between atoms: _516  and  _517
REMARK  215  A    between atoms: _524  and  _525
REMARK  216  A    between atoms: _530  and  _532
REMARK  217  A    between atoms: _532  and  _533
REMARK  218  A    between atoms: _532  and  _535
REMARK  219  A    between atoms: _535  and  _536
REMARK  220  A    between atoms: _536  and  _537
REMARK  221  A    between atoms: _539  and  _541
REMARK  222  A    between atoms: _541  and  _542
REMARK  223  A    between atoms: _541  and  _544
REMARK  224  A    between atoms: _544  and  _545
REMARK  225  A    between atoms: _545  and  _546
REMARK  226  A    between atoms: _548  and  _550
REMARK  227  A    between atoms: _550  and  _551
REMARK  228  A    between atoms: _554  and  _556
REMARK  229  A    between atoms: _556  and  _557
REMARK  230  A    between atoms: _556  and  _559
REMARK  231  A    between atoms: _559  and  _560
REMARK  232  A    between atoms: _560  and  _561
REMARK  233  A    between atoms: _564  and  _566
REMARK  234  A    between atoms: _566  and  _567
REMARK  235  A    between atoms: _566  and  _569
REMARK  236  A    between atoms: _569  and  _570
REMARK  237  A    between atoms: _573  and  _575
REMARK  238  A    between atoms: _575  and  _576
REMARK  239  A    between atoms: _575  and  _578
REMARK  240  A    between atoms: _578  and  _579
REMARK  241  A    between atoms: _582  and  _584
REMARK  242  A    between atoms: _584  and  _585
REMARK  243  A    between atoms: _584  and  _587
REMARK  244  A    between atoms: _587  and  _588
REMARK  245  A    between atoms: _590  and  _592
REMARK  246  A    between atoms: _592  and  _593
REMARK  247  A    between atoms: _592  and  _595
REMARK  248  A    between atoms: _598  and  _600
REMARK  249  A    between atoms: _600  and  _601
REMARK  250  A    between atoms: _600  and  _603
REMARK  251  A    between atoms: _603  and  _604
REMARK  252  A    between atoms: _604  and  _605
REMARK  253  A    between atoms: _610  and  _612
REMARK  254  A    between atoms: _612  and  _613
REMARK  255  A    between atoms: _612  and  _615
REMARK  256  A    between atoms: _619  and  _620
REMARK  257  A    between atoms: _625  and  _627
REMARK  258  A    between atoms: _627  and  _628
REMARK  259  A    between atoms: _627  and  _630
REMARK  260  A    between atoms: _630  and  _631
REMARK                            x       y       z     vdW  Elec       q    Type
REMARK                         _______ _______ _______ _____ _____    ______ ____
ROOT
ATOM      1  C   LEU A   1      34.478  -7.552   3.822  0.00  0.00    +0.238 C 
ATOM      2  N   LEU A   2      34.517  -7.049   5.055  0.00  0.00    -0.298 N 
ATOM      3  H   LEU A   2      33.629  -6.854   5.559  0.00  0.00    +0.150 HD
ATOM      4  O   LEU A   1      35.499  -7.808   3.177  0.00  0.00    -0.274 OA
ENDROOT
BRANCH   1   5
ATOM      5  CA  LEU A   1      33.096  -7.816   3.226  0.00  0.00    +0.145 C 
BRANCH   5   6
ATOM      6  N   LEU A   1      32.207  -8.471   4.181  0.00  0.00    -0.238 NA
ATOM      7  H   LEU A   1      31.336  -7.990   4.485  0.00  0.00    +0.142 HD
ENDBRANCH   5   6
BRANCH   5   8
ATOM      8  CB  LEU A   1      32.465  -6.504   2.733  0.00  0.00    +0.026 C 
BRANCH   8   9
ATOM      9  CG  LEU A   1      33.219  -5.782   1.608  0.00  0.00    +0.002 C 
ATOM     10  CD2 LEU A   1      32.403  -4.587   1.126  0.00  0.00    +0.000 C 
ATOM     11  CD1 LEU A   1      33.490  -6.747   0.455  0.00  0.00    +0.000 C 
ENDBRANCH   8   9
ENDBRANCH   5   8
ENDBRANCH   1   5
BRANCH   2  12
ATOM     12  CA  LEU A   2      35.794  -6.769   5.706  0.00  0.00    +0.137 C 
BRANCH  12  13
ATOM     13  C   LEU A   2      36.640  -8.032   5.861  0.00  0.00    +0.227 C 
ATOM     14  O   LEU A   2      37.844  -8.019   5.615  0.00  0.00    -0.286 OA
ENDBRANCH  12  13
BRANCH  12  15
ATOM     15  CB  LEU A   2      35.572  -6.146   7.089  0.00  0.00    +0.028 C 
BRANCH  15  16
ATOM     16  CG  LEU A   2      36.855  -5.829   7.872  0.00  0.00    +0.002 C 
ATOM     17  CD2 LEU A   2      36.508  -5.370   9.280  0.00  0.00    +0.000 C 
ATOM     18  CD1 LEU A   2      37.645  -4.747   7.147  0.00  0.00    +0.000 C 
ENDBRANCH  15  16
ENDBRANCH  12  15
ENDBRANCH   2  12
TORSDOF 8
REMARK  Name = ../refined-set-2016/3b66/3b66_pocket.pdb
REMARK  260 active torsions:
REMARK  status: ('A' for Active; 'I' for Inactive)
REMARK    1  A    between atoms: _1  and  _3
REMARK    2  A    between atoms: _3  and  _4
REMARK    3  A    between atoms: _3  and  _6
REMARK    4  A    between atoms: _9  and  _11
REMARK    5  A    between atoms: _11  and  _12
REMARK    6  A    between atoms: _15  and  _17
REMARK    7  A    between atoms: _17  and  _18
REMARK    8  A    between atoms: _17  and  _20
REMARK    9  A    between atoms: _20  and  _21
REMARK   10  A    between atoms: _24  and  _26
REMARK   11  A    between atoms: _26  and  _27
REMARK   12  A    between atoms: _26  and  _29
REMARK   13  A    between atoms: _29  and  _30
REMARK   14  A    between atoms: _33  and  _35
REMARK   15  A    between atoms: _35  and  _36
REMARK   16  A    between atoms: _35  and  _38
REMARK   17  A    between atoms: _38  and  _39
REMARK   18  A    between atoms: _41  and  _43
REMARK   19  A    between atoms: _43  and  _44
REMARK   20  A    between atoms: _43  and  _46
REMARK   21  A    between atoms: _46  and  _47
REMARK   22  A    between atoms: _49  and  _51
REMARK   23  A    between atoms: _51  and  _52
REMARK   24  A    between atoms: _51  and  _54
REMARK   25  A    between atoms: _54  and  _55
REMARK   26  A    between atoms: _58  and  _60
REMARK   27  A    between atoms: _60  and  _61
REMARK   28  A    between atoms: _60  and  _63
REMARK   29  A    between atoms: _63  and  _64
REMARK   30  A    between atoms: _69  and  _71
REMARK   31  A    between atoms: _71  and  _72
REMARK   32  A    between atoms: _71  and  _74
REMARK   33  A    between atoms: _74  and  _75
REMARK   34  A    between atoms: _75  and  _76
REMARK   35  A    between atoms: _79  and  _81
REMARK   36  A    between atoms: _81  and  _82
REMARK   37  A    between atoms: _81  and  _84
REMARK   38  A    between atoms: _84  and  _85
REMARK   39  A    between atoms: _88  and  _90
REMARK   40  A    between atoms: _90  and  _91
REMARK   41  A    between atoms: _93  and  _95
REMARK   42  A    between atoms: _95  and  _96
REMARK   43  A    between atoms: _95  and  _98
REMARK   44  A    between atoms: _98  and  _99
REMARK   45  A    between atoms: _99  and  _100
REMARK   46  A    between atoms: _103  and  _105
REMARK   47  A    between atoms: _105  and  _106
REMARK   48  A    between atoms: _105  and  _108
REMARK   49  A    between atoms: _108  and  _109
REMARK   50  A    between atoms: _109  and  _110
REMARK   51  A    between atoms: _110  and  _111
REMARK   52  A    between atoms: _120  and  _122
REMARK   53  A    between atoms: _122  and  _123
REMARK   54  A    between atoms: _122  and  _125
REMARK   55  A    between atoms: _125  and  _126
REMARK   56  A    between atoms: _126  and  _127
REMARK   57  A    between atoms: _132  and  _134
REMARK   58  A    between atoms: _134  and  _135
REMARK   59  A    between atoms: _134  and  _137
REMARK   60  A    between atoms: _137  and  _138
REMARK   61  A    between atoms: _141  and  _143
REMARK   62  A    between atoms: _143  and  _144
REMARK   63  A    between atoms: _143  and  _146
REMARK   64  A    between atoms: _146  and  _147
REMARK   65  A    between atoms: _150  and  _152
REMARK   66  A    between atoms: _152  and  _153
REMARK   67  A    between atoms: _152  and  _155
REMARK   68  A    between atoms: _155  and  _156
REMARK   69  A    between atoms: _156  and  _157
REMARK   70  A    between atoms: _162  and  _164
REMARK   71  A    between atoms: _164  and  _165
REMARK   72  A    between atoms: _164  and  _167
REMARK   73  A    between atoms: _167  and  _168
REMARK   74  A    between atoms: _173  and  _174
REMARK   75  A    between atoms: _176  and  _178
REMARK   76  A    between atoms: _178  and  _179
REMARK   77  A    between atoms: _178  and  _181
REMARK   78  A    between atoms: _181  and  _182
REMARK   79  A    between atoms: _184  and  _186
REMARK   80  A    between atoms: _186  and  _187
REMARK   81  A    between atoms: _186  and  _189
REMARK   82  A    between atoms: _189  and  _190
REMARK   83  A    between atoms: _200  and  _202
REMARK   84  A    between atoms: _202  and  _203
REMARK   85  A    between atoms: _202  and  _205
REMARK   86  A    between atoms: _205  and  _206
REMARK   87  A    between atoms: _206  and  _207
REMARK   88  A    between atoms: _209  and  _211
REMARK   89  A    between atoms: _211  and  _212
REMARK   90  A    between atoms: _214  and  _216
REMARK   91  A    between atoms: _216  and  _217
REMARK   92  A    between atoms: _216  and  _219
REMARK   93  A    between atoms: _219  and  _220
REMARK   94  A    between atoms: _223  and  _225
REMARK   95  A    between atoms: _225  and  _226
REMARK   96  A    between atoms: _225  and  _228
REMARK   97  A    between atoms: _228  and  _229
REMARK   98  A    between atoms: _229  and  _230
REMARK   99  A    between atoms: _232  and  _234
REMARK  100  A    between atoms: _234  and  _235
REMARK  101  A    between atoms: _234  and  _237
REMARK  102  A    between atoms: _240  and  _242
REMARK  103  A    between atoms: _242  and  _243
REMARK  104  A    between atoms: _242  and  _245
REMARK  105  A    between atoms: _245  and  _246
REMARK  106  A    between atoms: _252  and  _254
REMARK  107  A    between atoms: _254  and  _255
REMARK  108  A    between atoms: _258  and  _260
REMARK  109  A    between atoms: _260  and  _261
REMARK  110  A    between atoms: _260  and  _263
REMARK  111  A    between atoms: _263  and  _264
REMARK  112  A    between atoms: _264  and  _265
REMARK  113  A    between atoms: _267  and  _269
REMARK  114  A    between atoms: _269  and  _270
REMARK  115  A    between atoms: _272  and  _274
REMARK  116  A    between atoms: _274  and  _275
REMARK  117  A    between atoms: _274  and  _277
REMARK  118  A    between atoms: _277  and  _278
REMARK  119  A    between atoms: _288  and  _290
REMARK  120  A    between atoms: _290  and  _291
REMARK  121  A    between atoms: _290  and  _293
REMARK  122  A    between atoms: _293  and  _294
REMARK  123  A    between atoms: _294  and  _295
REMARK  124  A    between atoms: _295  and  _296
REMARK  125  A    between atoms: _305  and  _307
REMARK  126  A    between atoms: _307  and  _308
REMARK  127  A    between atoms: _307  and  _310
REMARK  128  A    between atoms: _310  and  _311
REMARK  129  A    between atoms: _313  and  _315
REMARK  130  A    between atoms: _315  and  _316
REMARK  131  A    between atoms: _315  and  _318
REMARK  132  A    between atoms: _318  and  _319
REMARK  133  A    between atoms: _322  and  _324
REMARK  134  A    between atoms: _324  and  _325
REMARK  135  A    between atoms: _324  and  _327
REMARK  136  A    between atoms: _327  and  _328
REMARK  137  A    between atoms: _333  and  _334
REMARK  138  A    between atoms: _336  and  _338
REMARK  139  A    between atoms: _338  and  _339
REMARK  140  A    between atoms: _338  and  _341
REMARK  141  A    between atoms: _341  and  _342
REMARK  142  A    between atoms: _348  and  _350
REMARK  143  A    between atoms: _350  and  _351
REMARK  144  A    between atoms: _354  and  _356
REMARK  145  A    between atoms: _356  and  _357
REMARK  146  A    between atoms: _356  and  _359
REMARK  147  A    between atoms: _359  and  _360
REMARK  148  A    between atoms: _363  and  _365
REMARK  149  A    between atoms: _365  and  _366
REMARK  150  A    between atoms: _365  and  _368
REMARK  151  A    between atoms: _368  and  _369
REMARK  152  A    between atoms: _371  and  _373
REMARK  153  A    between atoms: _373  and  _374
REMARK  154  A    between atoms: _373  and  _376
REMARK  155  A    between atoms: _376  and  _377
REMARK  156  A    between atoms: _377  and  _378
REMARK  157  A    between atoms: _380  and  _382
REMARK  158  A    between atoms: _382  and  _383
REMARK  159  A    between atoms: _382  and  _385
REMARK  160  A    between atoms: _385  and  _386
REMARK  161  A    between atoms: _386  and  _387
REMARK  162  A    between atoms: _392  and  _394
REMARK  163  A    between atoms: _394  and  _395
REMARK  164  A    between atoms: _394  and  _397
REMARK  165  A    between atoms: _399  and  _401
REMARK  166  A    between atoms: _401  and  _402
REMARK  167  A    between atoms: _401  and  _404
REMARK  168  A    between atoms: _404  and  _405
REMARK  169  A    between atoms: _405  and  _406
REMARK  170  A    between atoms: _408  and  _410
REMARK  171  A    between atoms: _410  and  _411
REMARK  172  A    between atoms: _410  and  _413
REMARK  173  A    between atoms: _413  and  _414
REMARK  174  A    between atoms: _417  and  _419
REMARK  175  A    between atoms: _419  and  _420
REMARK  176  A    between atoms: _423  and  _425
REMARK  177  A    between atoms: _425  and  _426
REMARK  178  A    between atoms: _425  and  _428
REMARK  179  A    between atoms: _428  and  _429
REMARK  180  A    between atoms: _432  and  _434
REMARK  181  A    between atoms: _434  and  _435
REMARK  182  A    between atoms: _434  and  _437
REMARK  183  A    between atoms: _437  and  _438
REMARK  184  A    between atoms: _443  and  _445
REMARK  185  A    between atoms: _445  and  _446
REMARK  186  A    between atoms: _445  and  _448
REMARK  187  A    between atoms: _448  and  _449
REMARK  188  A    between atoms: _455  and  _457
REMARK  189  A    between atoms: _457  and  _458
REMARK  190  A    between atoms: _457  and  _460
REMARK  191  A    between atoms: _460  and  _461
REMARK  192  A    between atoms: _464  and  _466
REMARK  193  A    between atoms: _466  and  _467
REMARK  194  A    between atoms: _466  and  _469
REMARK  195  A    between atoms: _469  and  _470
REMARK  196  A    between atoms: _476  and  _478
REMARK  197  A    between atoms: _478  and  _479
REMARK  198  A    between atoms: _478  and  _481
REMARK  199  A    between atoms: _481  and  _482
REMARK  200  A    between atoms: _485  and  _487
REMARK  201  A    between atoms: _487  and  _488
REMARK  202  A    between atoms: _487  and  _490
REMARK  203  A    between atoms: _490  and  _491
REMARK  204  A    between atoms: _494  and  _496
REMARK  205  A    between atoms: _496  and  _497
REMARK  206  A    between atoms: _496  and  _499
REMARK  207  A    between atoms: _502  and  _504
REMARK  208  A    between atoms: _504  and  _505
REMARK  209  A    between atoms: _504  and  _507
REMARK  210  A    between atoms: _507  and  _508
REMARK  211  A    between atoms: _511  and  _513
REMARK  212  A    between atoms: _513  and  _514
REMARK  213  A    between atoms: _513  and  _516
REMARK  214  A    between atoms: _516  and  _517
REMARK  215  A    between atoms: _524  and  _525
REMARK  216  A    between atoms: _530  and  _532
REMARK  217  A    between atoms: _532  and  _533
REMARK  218  A    between atoms: _532  and  _535
REMARK  219  A    between atoms: _535  and  _536
REMARK  220  A    between atoms: _536  and  _537
REMARK  221  A    between atoms: _539  and  _541
REMARK  222  A    between atoms: _541  and  _542
REMARK  223  A    between atoms: _541  and  _544
REMARK  224  A    between atoms: _544  and  _545
REMARK  225  A    between atoms: _545  and  _546
REMARK  226  A    between atoms: _548  and  _550
REMARK  227  A    between atoms: _550  and  _551
REMARK  228  A    between atoms: _554  and  _556
REMARK  229  A    between atoms: _556  and  _557
REMARK  230  A    between atoms: _556  and  _559
REMARK  231  A    between atoms: _559  and  _560
REMARK  232  A    between atoms: _560  and  _561
REMARK  233  A    between atoms: _564  and  _566
REMARK  234  A    between atoms: _566  and  _567
REMARK  235  A    between atoms: _566  and  _569
REMARK  236  A    between atoms: _569  and  _570
REMARK  237  A    between atoms: _573  and  _575
REMARK  238  A    between atoms: _575  and  _576
REMARK  239  A    between atoms: _575  and  _578
REMARK  240  A    between atoms: _578  and  _579
REMARK  241  A    between atoms: _582  and  _584
REMARK  242  A    between atoms: _584  and  _585
REMARK  243  A    between atoms: _584  and  _587
REMARK  244  A    between atoms: _587  and  _588
REMARK  245  A    between atoms: _590  and  _592
REMARK  246  A    between atoms: _592  and  _593
REMARK  247  A    between atoms: _592  and  _595
REMARK  248  A    between atoms: _598  and  _600
REMARK  249  A    between atoms: _600  and  _601
REMARK  250  A    between atoms: _600  and  _603
REMARK  251  A    between atoms: _603  and  _604
REMARK  252  A    between atoms: _604  and  _605
REMARK  253  A    between atoms: _610  and  _612
REMARK  254  A    between atoms: _612  and  _613
REMARK  255  A    between atoms: _612  and  _615
REMARK  256  A    between atoms: _619  and  _620
REMARK  257  A    between atoms: _625  and  _627
REMARK  258  A    between atoms: _627  and  _628
REMARK  259  A    between atoms: _627  and  _630
REMARK  260  A    between atoms: _630  and  _631
REMARK                            x       y       z     vdW  Elec       q    Type
REMARK                         _______ _______ _______ _____ _____    ______ ____
ROOT
ATOM      1  C   ASP A   2      38.860   0.057   1.956  0.00  0.00    +0.241 C 
ATOM      2  N   PHE A   3      39.175  -0.430   3.153  0.00  0.00    -0.297 N 
ATOM      3  H   PHE A   3      39.938  -1.133   3.232  0.00  0.00    +0.150 HD
ATOM      4  O   ASP A   2      37.949   0.873   1.772  0.00  0.00    -0.273 OA
ENDROOT
BRANCH   1   5
ATOM      5  CA  ASP A   2      39.688  -0.456   0.788  0.00  0.00    +0.160 C 
BRANCH   5   8
ATOM      6  C   VAL A   1      38.905  -2.539  -0.202  0.00  0.00    +0.238 C 
ATOM      7  O   VAL A   1      39.565  -3.221   0.582  0.00  0.00    -0.274 OA
ATOM      8  N   ASP A   2      38.892  -1.209  -0.175  0.00  0.00    -0.297 N 
ATOM      9  H   ASP A   2      38.300  -0.694  -0.857  0.00  0.00    +0.150 HD
BRANCH   6  10
ATOM     10  CA  VAL A   1      38.044  -3.197  -1.273  0.00  0.00    +0.145 C 
BRANCH  10  11
ATOM     11  CB  VAL A   1      36.742  -3.729  -0.632  0.00  0.00    +0.025 C 
ATOM     12  CG2 VAL A   1      36.116  -2.657   0.257  0.00  0.00    +0.002 C 
ATOM     13  CG1 VAL A   1      35.764  -4.131  -1.724  0.00  0.00    +0.002 C 
ENDBRANCH  10  11
BRANCH  10  14
ATOM     14  N   VAL A   1      38.808  -4.269  -1.908  0.00  0.00    -0.238 NA
ATOM     15  H   VAL A   1      38.903  -5.186  -1.426  0.00  0.00    +0.142 HD
ENDBRANCH  10  14
ENDBRANCH   6  10
ENDBRANCH   5   8
BRANCH   5  16
ATOM     16  CB  ASP A   2      40.360   0.731   0.096  0.00  0.00    +0.143 C 
BRANCH  16  17
ATOM     17  CG  ASP A   2      41.001   0.347  -1.217  0.00  0.00    +0.367 C 
ATOM     18  OD2 ASP A   2      42.243   0.429  -1.322  0.00  0.00    -0.246 OA
ATOM     19  OD1 ASP A   2      40.257  -0.043  -2.143  0.00  0.00    -0.246 OA
ENDBRANCH  16  17
ENDBRANCH   5  16
ENDBRANCH   1   5
BRANCH   2  20
ATOM     20  CA  PHE A   3      38.475   0.000   4.353  0.00  0.00    +0.153 C 
BRANCH  20  21
ATOM     21  C   PHE A   3      39.326   0.984   5.122  0.00  0.00    +0.244 C 
ATOM     22  N   PRO A   4      38.764   2.155   5.443  0.00  0.00    -0.273 N 
ATOM     23  CA  PRO A   4      39.520   3.159   6.195  0.00  0.00    +0.140 C 
ATOM     24  CB  PRO A   4      38.541   4.327   6.287  0.00  0.00    +0.030 C 
ATOM     25  CG  PRO A   4      37.712   4.178   5.051  0.00  0.00    +0.024 C 
ATOM     26  CD  PRO A   4      37.465   2.694   5.004  0.00  0.00    +0.094 C 
ATOM     27  O   PHE A   3      40.486   0.710   5.420  0.00  0.00    -0.273 OA
BRANCH  23  28
ATOM     28  C   PRO A   4      39.856   2.572   7.567  0.00  0.00    +0.227 C 
ATOM     29  O   PRO A   4      39.108   1.746   8.093  0.00  0.00    -0.286 OA
ENDBRANCH  23  28
ENDBRANCH  20  21
BRANCH  20  30
ATOM     30  CB  PHE A   3      38.151  -1.181   5.271  0.00  0.00    +0.055 C 
BRANCH  30  31
ATOM     31  CG  PHE A   3      36.922  -1.937   4.873  0.00  0.00    -0.020 A 
ATOM     32  CD2 PHE A   3      35.671  -1.533   5.325  0.00  0.00    -0.004 A 
ATOM     33  CE2 PHE A   3      34.523  -2.229   4.960  0.00  0.00    -0.000 A 
ATOM     34  CZ  PHE A   3      34.623  -3.341   4.136  0.00  0.00    -0.000 A 
ATOM     35  CE1 PHE A   3      35.869  -3.755   3.677  0.00  0.00    -0.000 A 
ATOM     36  CD1 PHE A   3      37.011  -3.051   4.047  0.00  0.00    -0.004 A 
ENDBRANCH  30  31
ENDBRANCH  20  30
ENDBRANCH   2  20
TORSDOF 12
REMARK  Name = ../refined-set-2016/3b66/3b66_pocket.pdb
REMARK  260 active torsions:
REMARK  status: ('A' for Active; 'I' for Inactive)
REMARK    1  A    between atoms: _1  and  _3
REMARK    2  A    between atoms: _3  and  _4
REMARK    3  A    between atoms: _3  and  _6
REMARK    4  A    between atoms: _9  and  _11
REMARK    5  A    between atoms: _11  and  _12
REMARK    6  A    between atoms: _15  and  _17
REMARK    7  A    between atoms: _17  and  _18
REMARK    8  A    between atoms: _17  and  _20
REMARK    9  A    between atoms: _20  and  _21
REMARK   10  A    between atoms: _24  and  _26
REMARK   11  A    between atoms: _26  and  _27
REMARK   12  A    between atoms: _26  and  _29
REMARK   13  A    between atoms: _29  and  _30
REMARK   14  A    between atoms: _33  and  _35
REMARK   15  A    between atoms: _35  and  _36
REMARK   16  A    between atoms: _35  and  _38
REMARK   17  A    between atoms: _38  and  _39
REMARK   18  A    between atoms: _41  and  _43
REMARK   19  A    between atoms: _43  and  _44
REMARK   20  A    between atoms: _43  and  _46
REMARK   21  A    between atoms: _46  and  _47
REMARK   22  A    between atoms: _49  and  _51
REMARK   23  A    between atoms: _51  and  _52
REMARK   24  A    between atoms: _51  and  _54
REMARK   25  A    between atoms: _54  and  _55
REMARK   26  A    between atoms: _58  and  _60
REMARK   27  A    between atoms: _60  and  _61
REMARK   28  A    between atoms: _60  and  _63
REMARK   29  A    between atoms: _63  and  _64
REMARK   30  A    between atoms: _69  and  _71
REMARK   31  A    between atoms: _71  and  _72
REMARK   32  A    between atoms: _71  and  _74
REMARK   33  A    between atoms: _74  and  _75
REMARK   34  A    between atoms: _75  and  _76
REMARK   35  A    between atoms: _79  and  _81
REMARK   36  A    between atoms: _81  and  _82
REMARK   37  A    between atoms: _81  and  _84
REMARK   38  A    between atoms: _84  and  _85
REMARK   39  A    between atoms: _88  and  _90
REMARK   40  A    between atoms: _90  and  _91
REMARK   41  A    between atoms: _93  and  _95
REMARK   42  A    between atoms: _95  and  _96
REMARK   43  A    between atoms: _95  and  _98
REMARK   44  A    between atoms: _98  and  _99
REMARK   45  A    between atoms: _99  and  _100
REMARK   46  A    between atoms: _103  and  _105
REMARK   47  A    between atoms: _105  and  _106
REMARK   48  A    between atoms: _105  and  _108
REMARK   49  A    between atoms: _108  and  _109
REMARK   50  A    between atoms: _109  and  _110
REMARK   51  A    between atoms: _110  and  _111
REMARK   52  A    between atoms: _120  and  _122
REMARK   53  A    between atoms: _122  and  _123
REMARK   54  A    between atoms: _122  and  _125
REMARK   55  A    between atoms: _125  and  _126
REMARK   56  A    between atoms: _126  and  _127
REMARK   57  A    between atoms: _132  and  _134
REMARK   58  A    between atoms: _134  and  _135
REMARK   59  A    between atoms: _134  and  _137
REMARK   60  A    between atoms: _137  and  _138
REMARK   61  A    between atoms: _141  and  _143
REMARK   62  A    between atoms: _143  and  _144
REMARK   63  A    between atoms: _143  and  _146
REMARK   64  A    between atoms: _146  and  _147
REMARK   65  A    between atoms: _150  and  _152
REMARK   66  A    between atoms: _152  and  _153
REMARK   67  A    between atoms: _152  and  _155
REMARK   68  A    between atoms: _155  and  _156
REMARK   69  A    between atoms: _156  and  _157
REMARK   70  A    between atoms: _162  and  _164
REMARK   71  A    between atoms: _164  and  _165
REMARK   72  A    between atoms: _164  and  _167
REMARK   73  A    between atoms: _167  and  _168
REMARK   74  A    between atoms: _173  and  _174
REMARK   75  A    between atoms: _176  and  _178
REMARK   76  A    between atoms: _178  and  _179
REMARK   77  A    between atoms: _178  and  _181
REMARK   78  A    between atoms: _181  and  _182
REMARK   79  A    between atoms: _184  and  _186
REMARK   80  A    between atoms: _186  and  _187
REMARK   81  A    between atoms: _186  and  _189
REMARK   82  A    between atoms: _189  and  _190
REMARK   83  A    between atoms: _200  and  _202
REMARK   84  A    between atoms: _202  and  _203
REMARK   85  A    between atoms: _202  and  _205
REMARK   86  A    between atoms: _205  and  _206
REMARK   87  A    between atoms: _206  and  _207
REMARK   88  A    between atoms: _209  and  _211
REMARK   89  A    between atoms: _211  and  _212
REMARK   90  A    between atoms: _214  and  _216
REMARK   91  A    between atoms: _216  and  _217
REMARK   92  A    between atoms: _216  and  _219
REMARK   93  A    between atoms: _219  and  _220
REMARK   94  A    between atoms: _223  and  _225
REMARK   95  A    between atoms: _225  and  _226
REMARK   96  A    between atoms: _225  and  _228
REMARK   97  A    between atoms: _228  and  _229
REMARK   98  A    between atoms: _229  and  _230
REMARK   99  A    between atoms: _232  and  _234
REMARK  100  A    between atoms: _234  and  _235
REMARK  101  A    between atoms: _234  and  _237
REMARK  102  A    between atoms: _240  and  _242
REMARK  103  A    between atoms: _242  and  _243
REMARK  104  A    between atoms: _242  and  _245
REMARK  105  A    between atoms: _245  and  _246
REMARK  106  A    between atoms: _252  and  _254
REMARK  107  A    between atoms: _254  and  _255
REMARK  108  A    between atoms: _258  and  _260
REMARK  109  A    between atoms: _260  and  _261
REMARK  110  A    between atoms: _260  and  _263
REMARK  111  A    between atoms: _263  and  _264
REMARK  112  A    between atoms: _264  and  _265
REMARK  113  A    between atoms: _267  and  _269
REMARK  114  A    between atoms: _269  and  _270
REMARK  115  A    between atoms: _272  and  _274
REMARK  116  A    between atoms: _274  and  _275
REMARK  117  A    between atoms: _274  and  _277
REMARK  118  A    between atoms: _277  and  _278
REMARK  119  A    between atoms: _288  and  _290
REMARK  120  A    between atoms: _290  and  _291
REMARK  121  A    between atoms: _290  and  _293
REMARK  122  A    between atoms: _293  and  _294
REMARK  123  A    between atoms: _294  and  _295
REMARK  124  A    between atoms: _295  and  _296
REMARK  125  A    between atoms: _305  and  _307
REMARK  126  A    between atoms: _307  and  _308
REMARK  127  A    between atoms: _307  and  _310
REMARK  128  A    between atoms: _310  and  _311
REMARK  129  A    between atoms: _313  and  _315
REMARK  130  A    between atoms: _315  and  _316
REMARK  131  A    between atoms: _315  and  _318
REMARK  132  A    between atoms: _318  and  _319
REMARK  133  A    between atoms: _322  and  _324
REMARK  134  A    between atoms: _324  and  _325
REMARK  135  A    between atoms: _324  and  _327
REMARK  136  A    between atoms: _327  and  _328
REMARK  137  A    between atoms: _333  and  _334
REMARK  138  A    between atoms: _336  and  _338
REMARK  139  A    between atoms: _338  and  _339
REMARK  140  A    between atoms: _338  and  _341
REMARK  141  A    between atoms: _341  and  _342
REMARK  142  A    between atoms: _348  and  _350
REMARK  143  A    between atoms: _350  and  _351
REMARK  144  A    between atoms: _354  and  _356
REMARK  145  A    between atoms: _356  and  _357
REMARK  146  A    between atoms: _356  and  _359
REMARK  147  A    between atoms: _359  and  _360
REMARK  148  A    between atoms: _363  and  _365
REMARK  149  A    between atoms: _365  and  _366
REMARK  150  A    between atoms: _365  and  _368
REMARK  151  A    between atoms: _368  and  _369
REMARK  152  A    between atoms: _371  and  _373
REMARK  153  A    between atoms: _373  and  _374
REMARK  154  A    between atoms: _373  and  _376
REMARK  155  A    between atoms: _376  and  _377
REMARK  156  A    between atoms: _377  and  _378
REMARK  157  A    between atoms: _380  and  _382
REMARK  158  A    between atoms: _382  and  _383
REMARK  159  A    between atoms: _382  and  _385
REMARK  160  A    between atoms: _385  and  _386
REMARK  161  A    between atoms: _386  and  _387
REMARK  162  A    between atoms: _392  and  _394
REMARK  163  A    between atoms: _394  and  _395
REMARK  164  A    between atoms: _394  and  _397
REMARK  165  A    between atoms: _399  and  _401
REMARK  166  A    between atoms: _401  and  _402
REMARK  167  A    between atoms: _401  and  _404
REMARK  168  A    between atoms: _404  and  _405
REMARK  169  A    between atoms: _405  and  _406
REMARK  170  A    between atoms: _408  and  _410
REMARK  171  A    between atoms: _410  and  _411
REMARK  172  A    between atoms: _410  and  _413
REMARK  173  A    between atoms: _413  and  _414
REMARK  174  A    between atoms: _417  and  _419
REMARK  175  A    between atoms: _419  and  _420
REMARK  176  A    between atoms: _423  and  _425
REMARK  177  A    between atoms: _425  and  _426
REMARK  178  A    between atoms: _425  and  _428
REMARK  179  A    between atoms: _428  and  _429
REMARK  180  A    between atoms: _432  and  _434
REMARK  181  A    between atoms: _434  and  _435
REMARK  182  A    between atoms: _434  and  _437
REMARK  183  A    between atoms: _437  and  _438
REMARK  184  A    between atoms: _443  and  _445
REMARK  185  A    between atoms: _445  and  _446
REMARK  186  A    between atoms: _445  and  _448
REMARK  187  A    between atoms: _448  and  _449
REMARK  188  A    between atoms: _455  and  _457
REMARK  189  A    between atoms: _457  and  _458
REMARK  190  A    between atoms: _457  and  _460
REMARK  191  A    between atoms: _460  and  _461
REMARK  192  A    between atoms: _464  and  _466
REMARK  193  A    between atoms: _466  and  _467
REMARK  194  A    between atoms: _466  and  _469
REMARK  195  A    between atoms: _469  and  _470
REMARK  196  A    between atoms: _476  and  _478
REMARK  197  A    between atoms: _478  and  _479
REMARK  198  A    between atoms: _478  and  _481
REMARK  199  A    between atoms: _481  and  _482
REMARK  200  A    between atoms: _485  and  _487
REMARK  201  A    between atoms: _487  and  _488
REMARK  202  A    between atoms: _487  and  _490
REMARK  203  A    between atoms: _490  and  _491
REMARK  204  A    between atoms: _494  and  _496
REMARK  205  A    between atoms: _496  and  _497
REMARK  206  A    between atoms: _496  and  _499
REMARK  207  A    between atoms: _502  and  _504
REMARK  208  A    between atoms: _504  and  _505
REMARK  209  A    between atoms: _504  and  _507
REMARK  210  A    between atoms: _507  and  _508
REMARK  211  A    between atoms: _511  and  _513
REMARK  212  A    between atoms: _513  and  _514
REMARK  213  A    between atoms: _513  and  _516
REMARK  214  A    between atoms: _516  and  _517
REMARK  215  A    between atoms: _524  and  _525
REMARK  216  A    between atoms: _530  and  _532
REMARK  217  A    between atoms: _532  and  _533
REMARK  218  A    between atoms: _532  and  _535
REMARK  219  A    between atoms: _535  and  _536
REMARK  220  A    between atoms: _536  and  _537
REMARK  221  A    between atoms: _539  and  _541
REMARK  222  A    between atoms: _541  and  _542
REMARK  223  A    between atoms: _541  and  _544
REMARK  224  A    between atoms: _544  and  _545
REMARK  225  A    between atoms: _545  and  _546
REMARK  226  A    between atoms: _548  and  _550
REMARK  227  A    between atoms: _550  and  _551
REMARK  228  A    between atoms: _554  and  _556
REMARK  229  A    between atoms: _556  and  _557
REMARK  230  A    between atoms: _556  and  _559
REMARK  231  A    between atoms: _559  and  _560
REMARK  232  A    between atoms: _560  and  _561
REMARK  233  A    between atoms: _564  and  _566
REMARK  234  A    between atoms: _566  and  _567
REMARK  235  A    between atoms: _566  and  _569
REMARK  236  A    between atoms: _569  and  _570
REMARK  237  A    between atoms: _573  and  _575
REMARK  238  A    between atoms: _575  and  _576
REMARK  239  A    between atoms: _575  and  _578
REMARK  240  A    between atoms: _578  and  _579
REMARK  241  A    between atoms: _582  and  _584
REMARK  242  A    between atoms: _584  and  _585
REMARK  243  A    between atoms: _584  and  _587
REMARK  244  A    between atoms: _587  and  _588
REMARK  245  A    between atoms: _590  and  _592
REMARK  246  A    between atoms: _592  and  _593
REMARK  247  A    between atoms: _592  and  _595
REMARK  248  A    between atoms: _598  and  _600
REMARK  249  A    between atoms: _600  and  _601
REMARK  250  A    between atoms: _600  and  _603
REMARK  251  A    between atoms: _603  and  _604
REMARK  252  A    between atoms: _604  and  _605
REMARK  253  A    between atoms: _610  and  _612
REMARK  254  A    between atoms: _612  and  _613
REMARK  255  A    between atoms: _612  and  _615
REMARK  256  A    between atoms: _619  and  _620
REMARK  257  A    between atoms: _625  and  _627
REMARK  258  A    between atoms: _627  and  _628
REMARK  259  A    between atoms: _627  and  _630
REMARK  260  A    between atoms: _630  and  _631
REMARK                            x       y       z     vdW  Elec       q    Type
REMARK                         _______ _______ _______ _____ _____    ______ ____
ROOT
ATOM      1  CA  ILE A   6      33.532  -3.204  12.224  0.00  0.00    +0.149 C 
ENDROOT
BRANCH   1   2
ATOM      2  C   ILE A   6      34.028  -4.449  12.956  0.00  0.00    +0.241 C 
ATOM      3  N   SER A   7      35.310  -4.462  13.307  0.00  0.00    -0.295 N 
ATOM      4  H   SER A   7      35.904  -3.635  13.094  0.00  0.00    +0.150 HD
ATOM      5  O   ILE A   6      33.265  -5.381  13.198  0.00  0.00    -0.273 OA
BRANCH   3   6
ATOM      6  CA  SER A   7      35.904  -5.611  13.985  0.00  0.00    +0.178 C 
BRANCH   6   7
ATOM      7  C   SER A   7      35.665  -5.656  15.495  0.00  0.00    +0.243 C 
ATOM      8  O   SER A   7      35.727  -6.728  16.102  0.00  0.00    -0.273 OA
ATOM      9  N   VAL A   8      35.384  -4.505  16.099  0.00  0.00    -0.297 N 
ATOM     10  H   VAL A   8      35.321  -3.634  15.534  0.00  0.00    +0.150 HD
BRANCH   9  11
ATOM     11  CA  VAL A   8      35.162  -4.441  17.541  0.00  0.00    +0.149 C 
BRANCH  11  12
ATOM     12  C   VAL A   8      33.706  -4.280  17.967  0.00  0.00    +0.241 C 
ATOM     13  O   VAL A   8      33.223  -5.011  18.838  0.00  0.00    -0.273 OA
ATOM     14  N   GLN A   9      33.008  -3.330  17.353  0.00  0.00    -0.297 N 
ATOM     15  H   GLN A   9      33.458  -2.773  16.599  0.00  0.00    +0.150 HD
BRANCH  14  16
ATOM     16  CA  GLN A   9      31.624  -3.054  17.716  0.00  0.00    +0.149 C 
BRANCH  16  17
ATOM     17  C   GLN A   9      30.569  -3.866  16.969  0.00  0.00    +0.241 C 
ATOM     18  O   GLN A   9      29.685  -4.463  17.581  0.00  0.00    -0.273 OA
ATOM     19  N   VAL A  10      30.658  -3.894  15.646  0.00  0.00    -0.297 N 
ATOM     20  H   VAL A  10      31.432  -3.386  15.171  0.00  0.00    +0.150 HD
BRANCH  19  21
ATOM     21  CA  VAL A  10      29.685  -4.627  14.852  0.00  0.00    +0.149 C 
BRANCH  21  22
ATOM     22  C   VAL A  10      29.458  -6.084  15.291  0.00  0.00    +0.244 C 
ATOM     23  N   PRO A  11      30.526  -6.818  15.646  0.00  0.00    -0.273 N 
ATOM     24  CA  PRO A  11      30.320  -8.214  16.069  0.00  0.00    +0.140 C 
ATOM     25  CB  PRO A  11      31.749  -8.738  16.246  0.00  0.00    +0.030 C 
ATOM     26  CG  PRO A  11      32.557  -7.866  15.306  0.00  0.00    +0.024 C 
ATOM     27  CD  PRO A  11      31.963  -6.503  15.569  0.00  0.00    +0.094 C 
ATOM     28  O   VAL A  10      28.323  -6.555  15.305  0.00  0.00    -0.273 OA
BRANCH  24  29
ATOM     29  C   PRO A  11      29.483  -8.327  17.355  0.00  0.00    +0.227 C 
ATOM     30  O   PRO A  11      28.815  -9.337  17.585  0.00  0.00    -0.286 OA
ENDBRANCH  24  29
ENDBRANCH  21  22
BRANCH  21  31
ATOM     31  CB  VAL A  10      30.061  -4.581  13.357  0.00  0.00    +0.027 C 
ATOM     32  CG2 VAL A  10      30.021  -3.140  12.867  0.00  0.00    +0.002 C 
ATOM     33  CG1 VAL A  10      29.097  -5.441  12.541  0.00  0.00    +0.002 C 
ENDBRANCH  21  31
ENDBRANCH  19  21
ENDBRANCH  16  17
BRANCH  16  34
ATOM     34  CB  GLN A   9      31.347  -1.560  17.541  0.00  0.00    +0.039 C 
BRANCH  34  35
ATOM     35  CG  GLN A   9      32.301  -0.665  18.323  0.00  0.00    +0.087 C 
BRANCH  35  36
ATOM     36  CD  GLN A   9      32.050  -0.696  19.822  0.00  0.00    +0.219 C 
ATOM     37  NE2 GLN A   9      32.022   0.479  20.442  0.00  0.00    -0.329 N 
ATOM     38 HE21 GLN A   9      31.860   0.522  21.468  0.00  0.00    +0.145 HD
ATOM     39 HE22 GLN A   9      32.162   1.356  19.901  0.00  0.00    +0.145 HD
ATOM     40  OE1 GLN A   9      31.890  -1.763  20.417  0.00  0.00    -0.275 OA
ENDBRANCH  35  36
ENDBRANCH  34  35
ENDBRANCH  16  34
ENDBRANCH  14  16
ENDBRANCH  11  12
BRANCH  11  41
ATOM     41  CB  VAL A   8      35.971  -3.283  18.181  0.00  0.00    +0.027 C 
ATOM     42  CG2 VAL A   8      35.651  -3.174  19.678  0.00  0.00    +0.002 C 
ATOM     43  CG1 VAL A   8      37.461  -3.519  17.972  0.00  0.00    +0.002 C 
ENDBRANCH  11  41
ENDBRANCH   9  11
ENDBRANCH   6   7
BRANCH   6  44
ATOM     44  CB  SER A   7      37.411  -5.650  13.715  0.00  0.00    +0.166 C 
BRANCH  44  45
ATOM     45  OG  SER A   7      38.070  -4.592  14.393  0.00  0.00    -0.380 OA
ATOM     46  H   SER A   7      37.710  -3.725  14.078  0.00  0.00    +0.211 HD
ENDBRANCH  44  45
ENDBRANCH   6  44
ENDBRANCH   3   6
ENDBRANCH   1   2
BRANCH   1  49
ATOM     47  C   ILE A   5      33.915  -1.588  13.993  0.00  0.00    +0.241 C 
ATOM     48  O   ILE A   5      33.132  -2.173  14.744  0.00  0.00    -0.273 OA
ATOM     49  N   ILE A   6      34.167  -2.004  12.756  0.00  0.00    -0.297 N 
ATOM     50  H   ILE A   6      34.827  -1.466  12.159  0.00  0.00    +0.150 HD
BRANCH  47  51
ATOM     51  CA  ILE A   5      34.641  -0.324  14.456  0.00  0.00    +0.149 C 
BRANCH  51  54
ATOM     52  C   GLU A   4      36.912  -1.176  14.354  0.00  0.00    +0.241 C 
ATOM     53  O   GLU A   4      36.639  -2.117  15.095  0.00  0.00    -0.273 OA
ATOM     54  N   ILE A   5      36.018  -0.268  13.984  0.00  0.00    -0.297 N 
ATOM     55  H   ILE A   5      36.306   0.499  13.344  0.00  0.00    +0.150 HD
BRANCH  52  56
ATOM     56  CA  GLU A   4      38.319  -1.004  13.799  0.00  0.00    +0.149 C 
BRANCH  56  58
ATOM     57  C   ALA A   3      37.791  -1.715  11.542  0.00  0.00    +0.241 C 
ATOM     58  N   GLU A   4      38.264  -0.784  12.363  0.00  0.00    -0.297 N 
ATOM     59  H   GLU A   4      38.601   0.119  11.971  0.00  0.00    +0.150 HD
ATOM     60  O   ALA A   3      37.394  -2.821  11.928  0.00  0.00    -0.273 OA
BRANCH  57  61
ATOM     61  CA  ALA A   3      37.784  -1.352  10.065  0.00  0.00    +0.149 C 
ATOM     62  CB  ALA A   3      39.179  -1.559   9.480  0.00  0.00    +0.031 C 
BRANCH  61  65
ATOM     63  C   MET A   2      36.166   0.476  10.273  0.00  0.00    +0.241 C 
ATOM     64  O   MET A   2      35.346  -0.232  10.863  0.00  0.00    -0.273 OA
ATOM     65  N   ALA A   3      37.352   0.030   9.861  0.00  0.00    -0.297 N 
ATOM     66  H   ALA A   3      37.994   0.689   9.376  0.00  0.00    +0.150 HD
BRANCH  63  67
ATOM     67  CA  MET A   2      35.851   1.944   9.985  0.00  0.00    +0.149 C 
BRANCH  67  70
ATOM     68  C   MET A   1      37.476   2.912  11.506  0.00  0.00    +0.238 C 
ATOM     69  O   MET A   1      37.005   2.288  12.463  0.00  0.00    -0.274 OA
ATOM     70  N   MET A   2      36.991   2.807  10.275  0.00  0.00    -0.297 N 
ATOM     71  H   MET A   2      37.431   3.349   9.504  0.00  0.00    +0.150 HD
BRANCH  68  72
ATOM     72  CA  MET A   1      38.665   3.857  11.690  0.00  0.00    +0.146 C 
BRANCH  72  73
ATOM     73  N   MET A   1      39.709   3.671  10.688  0.00  0.00    -0.238 NA
ATOM     74  H   MET A   1      39.969   4.477  10.085  0.00  0.00    +0.142 HD
ENDBRANCH  72  73
BRANCH  72  75
ATOM     75  CB  MET A   1      38.193   5.309  11.638  0.00  0.00    +0.038 C 
BRANCH  75  76
ATOM     76  CG  MET A   1      37.398   5.781  12.832  0.00  0.00    +0.060 C 
BRANCH  76  77
ATOM     77  SD  MET A   1      37.040   7.550  12.667  0.00  0.00    -0.139 S 
ATOM     78  CE  MET A   1      38.681   8.259  12.932  0.00  0.00    +0.069 C 
ENDBRANCH  76  77
ENDBRANCH  75  76
ENDBRANCH  72  75
ENDBRANCH  68  72
ENDBRANCH  67  70
BRANCH  67  79
ATOM     79  CB  MET A   2      35.431   2.106   8.526  0.00  0.00    +0.041 C 
BRANCH  79  80
ATOM     80  CG  MET A   2      34.218   1.272   8.137  0.00  0.00    +0.060 C 
BRANCH  80  81
ATOM     81  SD  MET A   2      33.740   1.557   6.428  0.00  0.00    -0.139 S 
ATOM     82  CE  MET A   2      32.860   3.141   6.612  0.00  0.00    +0.069 C 
ENDBRANCH  80  81
ENDBRANCH  79  80
ENDBRANCH  67  79
ENDBRANCH  63  67
ENDBRANCH  61  65
ENDBRANCH  57  61
ENDBRANCH  56  58
BRANCH  56  83
ATOM     83  CB  GLU A   4      39.012   0.176  14.484  0.00  0.00    +0.041 C 
BRANCH  83  84
ATOM     84  CG  GLU A   4      39.048   0.089  15.995  0.00  0.00    +0.116 C 
BRANCH  84  85
ATOM     85  CD  GLU A   4      39.740   1.283  16.617  0.00  0.00    +0.365 C 
ATOM     86  OE2 GLU A   4      39.074   2.040  17.358  0.00  0.00    -0.246 OA
ATOM     87  OE1 GLU A   4      40.947   1.466  16.356  0.00  0.00    -0.246 OA
ENDBRANCH  84  85
ENDBRANCH  83  84
ENDBRANCH  56  83
ENDBRANCH  52  56
ENDBRANCH  51  54
BRANCH  51  88
ATOM     88  CB  ILE A   5      33.863   0.925  13.993  0.00  0.00    +0.027 C 
ATOM     89  CG2 ILE A   5      32.375   0.742  14.250  0.00  0.00    +0.002 C 
BRANCH  88  90
ATOM     90  CG1 ILE A   5      34.413   2.161  14.719  0.00  0.00    +0.002 C 
ATOM     91  CD1 ILE A   5      33.839   3.483  14.234  0.00  0.00    +0.000 C 
ENDBRANCH  88  90
ENDBRANCH  51  88
ENDBRANCH  47  51
ENDBRANCH   1  49
BRANCH   1  92
ATOM     92  CB  ILE A   6      33.830  -3.384  10.715  0.00  0.00    +0.027 C 
ATOM     93  CG2 ILE A   6      33.252  -4.713  10.226  0.00  0.00    +0.002 C 
BRANCH  92  94
ATOM     94  CG1 ILE A   6      33.224  -2.228   9.913  0.00  0.00    +0.002 C 
ATOM     95  CD1 ILE A   6      33.634  -2.223   8.441  0.00  0.00    +0.000 C 
ENDBRANCH  92  94
ENDBRANCH   1  92
TORSDOF 41
REMARK  Name = ../refined-set-2016/3b66/3b66_pocket.pdb
REMARK  260 active torsions:
REMARK  status: ('A' for Active; 'I' for Inactive)
REMARK    1  A    between atoms: _1  and  _3
REMARK    2  A    between atoms: _3  and  _4
REMARK    3  A    between atoms: _3  and  _6
REMARK    4  A    between atoms: _9  and  _11
REMARK    5  A    between atoms: _11  and  _12
REMARK    6  A    between atoms: _15  and  _17
REMARK    7  A    between atoms: _17  and  _18
REMARK    8  A    between atoms: _17  and  _20
REMARK    9  A    between atoms: _20  and  _21
REMARK   10  A    between atoms: _24  and  _26
REMARK   11  A    between atoms: _26  and  _27
REMARK   12  A    between atoms: _26  and  _29
REMARK   13  A    between atoms: _29  and  _30
REMARK   14  A    between atoms: _33  and  _35
REMARK   15  A    between atoms: _35  and  _36
REMARK   16  A    between atoms: _35  and  _38
REMARK   17  A    between atoms: _38  and  _39
REMARK   18  A    between atoms: _41  and  _43
REMARK   19  A    between atoms: _43  and  _44
REMARK   20  A    between atoms: _43  and  _46
REMARK   21  A    between atoms: _46  and  _47
REMARK   22  A    between atoms: _49  and  _51
REMARK   23  A    between atoms: _51  and  _52
REMARK   24  A    between atoms: _51  and  _54
REMARK   25  A    between atoms: _54  and  _55
REMARK   26  A    between atoms: _58  and  _60
REMARK   27  A    between atoms: _60  and  _61
REMARK   28  A    between atoms: _60  and  _63
REMARK   29  A    between atoms: _63  and  _64
REMARK   30  A    between atoms: _69  and  _71
REMARK   31  A    between atoms: _71  and  _72
REMARK   32  A    between atoms: _71  and  _74
REMARK   33  A    between atoms: _74  and  _75
REMARK   34  A    between atoms: _75  and  _76
REMARK   35  A    between atoms: _79  and  _81
REMARK   36  A    between atoms: _81  and  _82
REMARK   37  A    between atoms: _81  and  _84
REMARK   38  A    between atoms: _84  and  _85
REMARK   39  A    between atoms: _88  and  _90
REMARK   40  A    between atoms: _90  and  _91
REMARK   41  A    between atoms: _93  and  _95
REMARK   42  A    between atoms: _95  and  _96
REMARK   43  A    between atoms: _95  and  _98
REMARK   44  A    between atoms: _98  and  _99
REMARK   45  A    between atoms: _99  and  _100
REMARK   46  A    between atoms: _103  and  _105
REMARK   47  A    between atoms: _105  and  _106
REMARK   48  A    between atoms: _105  and  _108
REMARK   49  A    between atoms: _108  and  _109
REMARK   50  A    between atoms: _109  and  _110
REMARK   51  A    between atoms: _110  and  _111
REMARK   52  A    between atoms: _120  and  _122
REMARK   53  A    between atoms: _122  and  _123
REMARK   54  A    between atoms: _122  and  _125
REMARK   55  A    between atoms: _125  and  _126
REMARK   56  A    between atoms: _126  and  _127
REMARK   57  A    between atoms: _132  and  _134
REMARK   58  A    between atoms: _134  and  _135
REMARK   59  A    between atoms: _134  and  _137
REMARK   60  A    between atoms: _137  and  _138
REMARK   61  A    between atoms: _141  and  _143
REMARK   62  A    between atoms: _143  and  _144
REMARK   63  A    between atoms: _143  and  _146
REMARK   64  A    between atoms: _146  and  _147
REMARK   65  A    between atoms: _150  and  _152
REMARK   66  A    between atoms: _152  and  _153
REMARK   67  A    between atoms: _152  and  _155
REMARK   68  A    between atoms: _155  and  _156
REMARK   69  A    between atoms: _156  and  _157
REMARK   70  A    between atoms: _162  and  _164
REMARK   71  A    between atoms: _164  and  _165
REMARK   72  A    between atoms: _164  and  _167
REMARK   73  A    between atoms: _167  and  _168
REMARK   74  A    between atoms: _173  and  _174
REMARK   75  A    between atoms: _176  and  _178
REMARK   76  A    between atoms: _178  and  _179
REMARK   77  A    between atoms: _178  and  _181
REMARK   78  A    between atoms: _181  and  _182
REMARK   79  A    between atoms: _184  and  _186
REMARK   80  A    between atoms: _186  and  _187
REMARK   81  A    between atoms: _186  and  _189
REMARK   82  A    between atoms: _189  and  _190
REMARK   83  A    between atoms: _200  and  _202
REMARK   84  A    between atoms: _202  and  _203
REMARK   85  A    between atoms: _202  and  _205
REMARK   86  A    between atoms: _205  and  _206
REMARK   87  A    between atoms: _206  and  _207
REMARK   88  A    between atoms: _209  and  _211
REMARK   89  A    between atoms: _211  and  _212
REMARK   90  A    between atoms: _214  and  _216
REMARK   91  A    between atoms: _216  and  _217
REMARK   92  A    between atoms: _216  and  _219
REMARK   93  A    between atoms: _219  and  _220
REMARK   94  A    between atoms: _223  and  _225
REMARK   95  A    between atoms: _225  and  _226
REMARK   96  A    between atoms: _225  and  _228
REMARK   97  A    between atoms: _228  and  _229
REMARK   98  A    between atoms: _229  and  _230
REMARK   99  A    between atoms: _232  and  _234
REMARK  100  A    between atoms: _234  and  _235
REMARK  101  A    between atoms: _234  and  _237
REMARK  102  A    between atoms: _240  and  _242
REMARK  103  A    between atoms: _242  and  _243
REMARK  104  A    between atoms: _242  and  _245
REMARK  105  A    between atoms: _245  and  _246
REMARK  106  A    between atoms: _252  and  _254
REMARK  107  A    between atoms: _254  and  _255
REMARK  108  A    between atoms: _258  and  _260
REMARK  109  A    between atoms: _260  and  _261
REMARK  110  A    between atoms: _260  and  _263
REMARK  111  A    between atoms: _263  and  _264
REMARK  112  A    between atoms: _264  and  _265
REMARK  113  A    between atoms: _267  and  _269
REMARK  114  A    between atoms: _269  and  _270
REMARK  115  A    between atoms: _272  and  _274
REMARK  116  A    between atoms: _274  and  _275
REMARK  117  A    between atoms: _274  and  _277
REMARK  118  A    between atoms: _277  and  _278
REMARK  119  A    between atoms: _288  and  _290
REMARK  120  A    between atoms: _290  and  _291
REMARK  121  A    between atoms: _290  and  _293
REMARK  122  A    between atoms: _293  and  _294
REMARK  123  A    between atoms: _294  and  _295
REMARK  124  A    between atoms: _295  and  _296
REMARK  125  A    between atoms: _305  and  _307
REMARK  126  A    between atoms: _307  and  _308
REMARK  127  A    between atoms: _307  and  _310
REMARK  128  A    between atoms: _310  and  _311
REMARK  129  A    between atoms: _313  and  _315
REMARK  130  A    between atoms: _315  and  _316
REMARK  131  A    between atoms: _315  and  _318
REMARK  132  A    between atoms: _318  and  _319
REMARK  133  A    between atoms: _322  and  _324
REMARK  134  A    between atoms: _324  and  _325
REMARK  135  A    between atoms: _324  and  _327
REMARK  136  A    between atoms: _327  and  _328
REMARK  137  A    between atoms: _333  and  _334
REMARK  138  A    between atoms: _336  and  _338
REMARK  139  A    between atoms: _338  and  _339
REMARK  140  A    between atoms: _338  and  _341
REMARK  141  A    between atoms: _341  and  _342
REMARK  142  A    between atoms: _348  and  _350
REMARK  143  A    between atoms: _350  and  _351
REMARK  144  A    between atoms: _354  and  _356
REMARK  145  A    between atoms: _356  and  _357
REMARK  146  A    between atoms: _356  and  _359
REMARK  147  A    between atoms: _359  and  _360
REMARK  148  A    between atoms: _363  and  _365
REMARK  149  A    between atoms: _365  and  _366
REMARK  150  A    between atoms: _365  and  _368
REMARK  151  A    between atoms: _368  and  _369
REMARK  152  A    between atoms: _371  and  _373
REMARK  153  A    between atoms: _373  and  _374
REMARK  154  A    between atoms: _373  and  _376
REMARK  155  A    between atoms: _376  and  _377
REMARK  156  A    between atoms: _377  and  _378
REMARK  157  A    between atoms: _380  and  _382
REMARK  158  A    between atoms: _382  and  _383
REMARK  159  A    between atoms: _382  and  _385
REMARK  160  A    between atoms: _385  and  _386
REMARK  161  A    between atoms: _386  and  _387
REMARK  162  A    between atoms: _392  and  _394
REMARK  163  A    between atoms: _394  and  _395
REMARK  164  A    between atoms: _394  and  _397
REMARK  165  A    between atoms: _399  and  _401
REMARK  166  A    between atoms: _401  and  _402
REMARK  167  A    between atoms: _401  and  _404
REMARK  168  A    between atoms: _404  and  _405
REMARK  169  A    between atoms: _405  and  _406
REMARK  170  A    between atoms: _408  and  _410
REMARK  171  A    between atoms: _410  and  _411
REMARK  172  A    between atoms: _410  and  _413
REMARK  173  A    between atoms: _413  and  _414
REMARK  174  A    between atoms: _417  and  _419
REMARK  175  A    between atoms: _419  and  _420
REMARK  176  A    between atoms: _423  and  _425
REMARK  177  A    between atoms: _425  and  _426
REMARK  178  A    between atoms: _425  and  _428
REMARK  179  A    between atoms: _428  and  _429
REMARK  180  A    between atoms: _432  and  _434
REMARK  181  A    between atoms: _434  and  _435
REMARK  182  A    between atoms: _434  and  _437
REMARK  183  A    between atoms: _437  and  _438
REMARK  184  A    between atoms: _443  and  _445
REMARK  185  A    between atoms: _445  and  _446
REMARK  186  A    between atoms: _445  and  _448
REMARK  187  A    between atoms: _448  and  _449
REMARK  188  A    between atoms: _455  and  _457
REMARK  189  A    between atoms: _457  and  _458
REMARK  190  A    between atoms: _457  and  _460
REMARK  191  A    between atoms: _460  and  _461
REMARK  192  A    between atoms: _464  and  _466
REMARK  193  A    between atoms: _466  and  _467
REMARK  194  A    between atoms: _466  and  _469
REMARK  195  A    between atoms: _469  and  _470
REMARK  196  A    between atoms: _476  and  _478
REMARK  197  A    between atoms: _478  and  _479
REMARK  198  A    between atoms: _478  and  _481
REMARK  199  A    between atoms: _481  and  _482
REMARK  200  A    between atoms: _485  and  _487
REMARK  201  A    between atoms: _487  and  _488
REMARK  202  A    between atoms: _487  and  _490
REMARK  203  A    between atoms: _490  and  _491
REMARK  204  A    between atoms: _494  and  _496
REMARK  205  A    between atoms: _496  and  _497
REMARK  206  A    between atoms: _496  and  _499
REMARK  207  A    between atoms: _502  and  _504
REMARK  208  A    between atoms: _504  and  _505
REMARK  209  A    between atoms: _504  and  _507
REMARK  210  A    between atoms: _507  and  _508
REMARK  211  A    between atoms: _511  and  _513
REMARK  212  A    between atoms: _513  and  _514
REMARK  213  A    between atoms: _513  and  _516
REMARK  214  A    between atoms: _516  and  _517
REMARK  215  A    between atoms: _524  and  _525
REMARK  216  A    between atoms: _530  and  _532
REMARK  217  A    between atoms: _532  and  _533
REMARK  218  A    between atoms: _532  and  _535
REMARK  219  A    between atoms: _535  and  _536
REMARK  220  A    between atoms: _536  and  _537
REMARK  221  A    between atoms: _539  and  _541
REMARK  222  A    between atoms: _541  and  _542
REMARK  223  A    between atoms: _541  and  _544
REMARK  224  A    between atoms: _544  and  _545
REMARK  225  A    between atoms: _545  and  _546
REMARK  226  A    between atoms: _548  and  _550
REMARK  227  A    between atoms: _550  and  _551
REMARK  228  A    between atoms: _554  and  _556
REMARK  229  A    between atoms: _556  and  _557
REMARK  230  A    between atoms: _556  and  _559
REMARK  231  A    between atoms: _559  and  _560
REMARK  232  A    between atoms: _560  and  _561
REMARK  233  A    between atoms: _564  and  _566
REMARK  234  A    between atoms: _566  and  _567
REMARK  235  A    between atoms: _566  and  _569
REMARK  236  A    between atoms: _569  and  _570
REMARK  237  A    between atoms: _573  and  _575
REMARK  238  A    between atoms: _575  and  _576
REMARK  239  A    between atoms: _575  and  _578
REMARK  240  A    between atoms: _578  and  _579
REMARK  241  A    between atoms: _582  and  _584
REMARK  242  A    between atoms: _584  and  _585
REMARK  243  A    between atoms: _584  and  _587
REMARK  244  A    between atoms: _587  and  _588
REMARK  245  A    between atoms: _590  and  _592
REMARK  246  A    between atoms: _592  and  _593
REMARK  247  A    between atoms: _592  and  _595
REMARK  248  A    between atoms: _598  and  _600
REMARK  249  A    between atoms: _600  and  _601
REMARK  250  A    between atoms: _600  and  _603
REMARK  251  A    between atoms: _603  and  _604
REMARK  252  A    between atoms: _604  and  _605
REMARK  253  A    between atoms: _610  and  _612
REMARK  254  A    between atoms: _612  and  _613
REMARK  255  A    between atoms: _612  and  _615
REMARK  256  A    between atoms: _619  and  _620
REMARK  257  A    between atoms: _625  and  _627
REMARK  258  A    between atoms: _627  and  _628
REMARK  259  A    between atoms: _627  and  _630
REMARK  260  A    between atoms: _630  and  _631
REMARK                            x       y       z     vdW  Elec       q    Type
REMARK                         _______ _______ _______ _____ _____    ______ ____
ROOT
ATOM      1  CA  ILE A   1      25.573  -6.405  17.525  0.00  0.00    +0.133 C 
ENDROOT
BRANCH   1   2
ATOM      2  N   ILE A   1      26.950  -6.511  17.988  0.00  0.00    -0.239 NA
ATOM      3  H   ILE A   1      27.701  -6.003  17.478  0.00  0.00    +0.142 HD
ENDBRANCH   1   2
BRANCH   1   4
ATOM      4  C   ILE A   1      25.140  -7.707  16.857  0.00  0.00    +0.224 C 
ATOM      5  O   ILE A   1      24.068  -8.243  17.147  0.00  0.00    -0.287 OA
ENDBRANCH   1   4
BRANCH   1   6
ATOM      6  CB  ILE A   1      25.408  -5.245  16.511  0.00  0.00    +0.023 C 
ATOM      7  CG2 ILE A   1      23.981  -5.229  15.969  0.00  0.00    +0.002 C 
BRANCH   6   8
ATOM      8  CG1 ILE A   1      25.752  -3.909  17.182  0.00  0.00    +0.002 C 
ATOM      9  CD1 ILE A   1      25.802  -2.722  16.217  0.00  0.00    +0.000 C 
ENDBRANCH   6   8
ENDBRANCH   1   6
TORSDOF 4
REMARK  Name = ../refined-set-2016/3b66/3b66_pocket.pdb
REMARK  260 active torsions:
REMARK  status: ('A' for Active; 'I' for Inactive)
REMARK    1  A    between atoms: _1  and  _3
REMARK    2  A    between atoms: _3  and  _4
REMARK    3  A    between atoms: _3  and  _6
REMARK    4  A    between atoms: _9  and  _11
REMARK    5  A    between atoms: _11  and  _12
REMARK    6  A    between atoms: _15  and  _17
REMARK    7  A    between atoms: _17  and  _18
REMARK    8  A    between atoms: _17  and  _20
REMARK    9  A    between atoms: _20  and  _21
REMARK   10  A    between atoms: _24  and  _26
REMARK   11  A    between atoms: _26  and  _27
REMARK   12  A    between atoms: _26  and  _29
REMARK   13  A    between atoms: _29  and  _30
REMARK   14  A    between atoms: _33  and  _35
REMARK   15  A    between atoms: _35  and  _36
REMARK   16  A    between atoms: _35  and  _38
REMARK   17  A    between atoms: _38  and  _39
REMARK   18  A    between atoms: _41  and  _43
REMARK   19  A    between atoms: _43  and  _44
REMARK   20  A    between atoms: _43  and  _46
REMARK   21  A    between atoms: _46  and  _47
REMARK   22  A    between atoms: _49  and  _51
REMARK   23  A    between atoms: _51  and  _52
REMARK   24  A    between atoms: _51  and  _54
REMARK   25  A    between atoms: _54  and  _55
REMARK   26  A    between atoms: _58  and  _60
REMARK   27  A    between atoms: _60  and  _61
REMARK   28  A    between atoms: _60  and  _63
REMARK   29  A    between atoms: _63  and  _64
REMARK   30  A    between atoms: _69  and  _71
REMARK   31  A    between atoms: _71  and  _72
REMARK   32  A    between atoms: _71  and  _74
REMARK   33  A    between atoms: _74  and  _75
REMARK   34  A    between atoms: _75  and  _76
REMARK   35  A    between atoms: _79  and  _81
REMARK   36  A    between atoms: _81  and  _82
REMARK   37  A    between atoms: _81  and  _84
REMARK   38  A    between atoms: _84  and  _85
REMARK   39  A    between atoms: _88  and  _90
REMARK   40  A    between atoms: _90  and  _91
REMARK   41  A    between atoms: _93  and  _95
REMARK   42  A    between atoms: _95  and  _96
REMARK   43  A    between atoms: _95  and  _98
REMARK   44  A    between atoms: _98  and  _99
REMARK   45  A    between atoms: _99  and  _100
REMARK   46  A    between atoms: _103  and  _105
REMARK   47  A    between atoms: _105  and  _106
REMARK   48  A    between atoms: _105  and  _108
REMARK   49  A    between atoms: _108  and  _109
REMARK   50  A    between atoms: _109  and  _110
REMARK   51  A    between atoms: _110  and  _111
REMARK   52  A    between atoms: _120  and  _122
REMARK   53  A    between atoms: _122  and  _123
REMARK   54  A    between atoms: _122  and  _125
REMARK   55  A    between atoms: _125  and  _126
REMARK   56  A    between atoms: _126  and  _127
REMARK   57  A    between atoms: _132  and  _134
REMARK   58  A    between atoms: _134  and  _135
REMARK   59  A    between atoms: _134  and  _137
REMARK   60  A    between atoms: _137  and  _138
REMARK   61  A    between atoms: _141  and  _143
REMARK   62  A    between atoms: _143  and  _144
REMARK   63  A    between atoms: _143  and  _146
REMARK   64  A    between atoms: _146  and  _147
REMARK   65  A    between atoms: _150  and  _152
REMARK   66  A    between atoms: _152  and  _153
REMARK   67  A    between atoms: _152  and  _155
REMARK   68  A    between atoms: _155  and  _156
REMARK   69  A    between atoms: _156  and  _157
REMARK   70  A    between atoms: _162  and  _164
REMARK   71  A    between atoms: _164  and  _165
REMARK   72  A    between atoms: _164  and  _167
REMARK   73  A    between atoms: _167  and  _168
REMARK   74  A    between atoms: _173  and  _174
REMARK   75  A    between atoms: _176  and  _178
REMARK   76  A    between atoms: _178  and  _179
REMARK   77  A    between atoms: _178  and  _181
REMARK   78  A    between atoms: _181  and  _182
REMARK   79  A    between atoms: _184  and  _186
REMARK   80  A    between atoms: _186  and  _187
REMARK   81  A    between atoms: _186  and  _189
REMARK   82  A    between atoms: _189  and  _190
REMARK   83  A    between atoms: _200  and  _202
REMARK   84  A    between atoms: _202  and  _203
REMARK   85  A    between atoms: _202  and  _205
REMARK   86  A    between atoms: _205  and  _206
REMARK   87  A    between atoms: _206  and  _207
REMARK   88  A    between atoms: _209  and  _211
REMARK   89  A    between atoms: _211  and  _212
REMARK   90  A    between atoms: _214  and  _216
REMARK   91  A    between atoms: _216  and  _217
REMARK   92  A    between atoms: _216  and  _219
REMARK   93  A    between atoms: _219  and  _220
REMARK   94  A    between atoms: _223  and  _225
REMARK   95  A    between atoms: _225  and  _226
REMARK   96  A    between atoms: _225  and  _228
REMARK   97  A    between atoms: _228  and  _229
REMARK   98  A    between atoms: _229  and  _230
REMARK   99  A    between atoms: _232  and  _234
REMARK  100  A    between atoms: _234  and  _235
REMARK  101  A    between atoms: _234  and  _237
REMARK  102  A    between atoms: _240  and  _242
REMARK  103  A    between atoms: _242  and  _243
REMARK  104  A    between atoms: _242  and  _245
REMARK  105  A    between atoms: _245  and  _246
REMARK  106  A    between atoms: _252  and  _254
REMARK  107  A    between atoms: _254  and  _255
REMARK  108  A    between atoms: _258  and  _260
REMARK  109  A    between atoms: _260  and  _261
REMARK  110  A    between atoms: _260  and  _263
REMARK  111  A    between atoms: _263  and  _264
REMARK  112  A    between atoms: _264  and  _265
REMARK  113  A    between atoms: _267  and  _269
REMARK  114  A    between atoms: _269  and  _270
REMARK  115  A    between atoms: _272  and  _274
REMARK  116  A    between atoms: _274  and  _275
REMARK  117  A    between atoms: _274  and  _277
REMARK  118  A    between atoms: _277  and  _278
REMARK  119  A    between atoms: _288  and  _290
REMARK  120  A    between atoms: _290  and  _291
REMARK  121  A    between atoms: _290  and  _293
REMARK  122  A    between atoms: _293  and  _294
REMARK  123  A    between atoms: _294  and  _295
REMARK  124  A    between atoms: _295  and  _296
REMARK  125  A    between atoms: _305  and  _307
REMARK  126  A    between atoms: _307  and  _308
REMARK  127  A    between atoms: _307  and  _310
REMARK  128  A    between atoms: _310  and  _311
REMARK  129  A    between atoms: _313  and  _315
REMARK  130  A    between atoms: _315  and  _316
REMARK  131  A    between atoms: _315  and  _318
REMARK  132  A    between atoms: _318  and  _319
REMARK  133  A    between atoms: _322  and  _324
REMARK  134  A    between atoms: _324  and  _325
REMARK  135  A    between atoms: _324  and  _327
REMARK  136  A    between atoms: _327  and  _328
REMARK  137  A    between atoms: _333  and  _334
REMARK  138  A    between atoms: _336  and  _338
REMARK  139  A    between atoms: _338  and  _339
REMARK  140  A    between atoms: _338  and  _341
REMARK  141  A    between atoms: _341  and  _342
REMARK  142  A    between atoms: _348  and  _350
REMARK  143  A    between atoms: _350  and  _351
REMARK  144  A    between atoms: _354  and  _356
REMARK  145  A    between atoms: _356  and  _357
REMARK  146  A    between atoms: _356  and  _359
REMARK  147  A    between atoms: _359  and  _360
REMARK  148  A    between atoms: _363  and  _365
REMARK  149  A    between atoms: _365  and  _366
REMARK  150  A    between atoms: _365  and  _368
REMARK  151  A    between atoms: _368  and  _369
REMARK  152  A    between atoms: _371  and  _373
REMARK  153  A    between atoms: _373  and  _374
REMARK  154  A    between atoms: _373  and  _376
REMARK  155  A    between atoms: _376  and  _377
REMARK  156  A    between atoms: _377  and  _378
REMARK  157  A    between atoms: _380  and  _382
REMARK  158  A    between atoms: _382  and  _383
REMARK  159  A    between atoms: _382  and  _385
REMARK  160  A    between atoms: _385  and  _386
REMARK  161  A    between atoms: _386  and  _387
REMARK  162  A    between atoms: _392  and  _394
REMARK  163  A    between atoms: _394  and  _395
REMARK  164  A    between atoms: _394  and  _397
REMARK  165  A    between atoms: _399  and  _401
REMARK  166  A    between atoms: _401  and  _402
REMARK  167  A    between atoms: _401  and  _404
REMARK  168  A    between atoms: _404  and  _405
REMARK  169  A    between atoms: _405  and  _406
REMARK  170  A    between atoms: _408  and  _410
REMARK  171  A    between atoms: _410  and  _411
REMARK  172  A    between atoms: _410  and  _413
REMARK  173  A    between atoms: _413  and  _414
REMARK  174  A    between atoms: _417  and  _419
REMARK  175  A    between atoms: _419  and  _420
REMARK  176  A    between atoms: _423  and  _425
REMARK  177  A    between atoms: _425  and  _426
REMARK  178  A    between atoms: _425  and  _428
REMARK  179  A    between atoms: _428  and  _429
REMARK  180  A    between atoms: _432  and  _434
REMARK  181  A    between atoms: _434  and  _435
REMARK  182  A    between atoms: _434  and  _437
REMARK  183  A    between atoms: _437  and  _438
REMARK  184  A    between atoms: _443  and  _445
REMARK  185  A    between atoms: _445  and  _446
REMARK  186  A    between atoms: _445  and  _448
REMARK  187  A    between atoms: _448  and  _449
REMARK  188  A    between atoms: _455  and  _457
REMARK  189  A    between atoms: _457  and  _458
REMARK  190  A    between atoms: _457  and  _460
REMARK  191  A    between atoms: _460  and  _461
REMARK  192  A    between atoms: _464  and  _466
REMARK  193  A    between atoms: _466  and  _467
REMARK  194  A    between atoms: _466  and  _469
REMARK  195  A    between atoms: _469  and  _470
REMARK  196  A    between atoms: _476  and  _478
REMARK  197  A    between atoms: _478  and  _479
REMARK  198  A    between atoms: _478  and  _481
REMARK  199  A    between atoms: _481  and  _482
REMARK  200  A    between atoms: _485  and  _487
REMARK  201  A    between atoms: _487  and  _488
REMARK  202  A    between atoms: _487  and  _490
REMARK  203  A    between atoms: _490  and  _491
REMARK  204  A    between atoms: _494  and  _496
REMARK  205  A    between atoms: _496  and  _497
REMARK  206  A    between atoms: _496  and  _499
REMARK  207  A    between atoms: _502  and  _504
REMARK  208  A    between atoms: _504  and  _505
REMARK  209  A    between atoms: _504  and  _507
REMARK  210  A    between atoms: _507  and  _508
REMARK  211  A    between atoms: _511  and  _513
REMARK  212  A    between atoms: _513  and  _514
REMARK  213  A    between atoms: _513  and  _516
REMARK  214  A    between atoms: _516  and  _517
REMARK  215  A    between atoms: _524  and  _525
REMARK  216  A    between atoms: _530  and  _532
REMARK  217  A    between atoms: _532  and  _533
REMARK  218  A    between atoms: _532  and  _535
REMARK  219  A    between atoms: _535  and  _536
REMARK  220  A    between atoms: _536  and  _537
REMARK  221  A    between atoms: _539  and  _541
REMARK  222  A    between atoms: _541  and  _542
REMARK  223  A    between atoms: _541  and  _544
REMARK  224  A    between atoms: _544  and  _545
REMARK  225  A    between atoms: _545  and  _546
REMARK  226  A    between atoms: _548  and  _550
REMARK  227  A    between atoms: _550  and  _551
REMARK  228  A    between atoms: _554  and  _556
REMARK  229  A    between atoms: _556  and  _557
REMARK  230  A    between atoms: _556  and  _559
REMARK  231  A    between atoms: _559  and  _560
REMARK  232  A    between atoms: _560  and  _561
REMARK  233  A    between atoms: _564  and  _566
REMARK  234  A    between atoms: _566  and  _567
REMARK  235  A    between atoms: _566  and  _569
REMARK  236  A    between atoms: _569  and  _570
REMARK  237  A    between atoms: _573  and  _575
REMARK  238  A    between atoms: _575  and  _576
REMARK  239  A    between atoms: _575  and  _578
REMARK  240  A    between atoms: _578  and  _579
REMARK  241  A    between atoms: _582  and  _584
REMARK  242  A    between atoms: _584  and  _585
REMARK  243  A    between atoms: _584  and  _587
REMARK  244  A    between atoms: _587  and  _588
REMARK  245  A    between atoms: _590  and  _592
REMARK  246  A    between atoms: _592  and  _593
REMARK  247  A    between atoms: _592  and  _595
REMARK  248  A    between atoms: _598  and  _600
REMARK  249  A    between atoms: _600  and  _601
REMARK  250  A    between atoms: _600  and  _603
REMARK  251  A    between atoms: _603  and  _604
REMARK  252  A    between atoms: _604  and  _605
REMARK  253  A    between atoms: _610  and  _612
REMARK  254  A    between atoms: _612  and  _613
REMARK  255  A    between atoms: _612  and  _615
REMARK  256  A    between atoms: _619  and  _620
REMARK  257  A    between atoms: _625  and  _627
REMARK  258  A    between atoms: _627  and  _628
REMARK  259  A    between atoms: _627  and  _630
REMARK  260  A    between atoms: _630  and  _631
REMARK                            x       y       z     vdW  Elec       q    Type
REMARK                         _______ _______ _______ _____ _____    ______ ____
ROOT
ATOM      1  O   HOH     1      26.308   1.144  13.495  0.00  0.00    +0.000 OA
ENDROOT
TORSDOF 0
REMARK  Name = ../refined-set-2016/3b66/3b66_pocket.pdb
REMARK  260 active torsions:
REMARK  status: ('A' for Active; 'I' for Inactive)
REMARK    1  A    between atoms: _1  and  _3
REMARK    2  A    between atoms: _3  and  _4
REMARK    3  A    between atoms: _3  and  _6
REMARK    4  A    between atoms: _9  and  _11
REMARK    5  A    between atoms: _11  and  _12
REMARK    6  A    between atoms: _15  and  _17
REMARK    7  A    between atoms: _17  and  _18
REMARK    8  A    between atoms: _17  and  _20
REMARK    9  A    between atoms: _20  and  _21
REMARK   10  A    between atoms: _24  and  _26
REMARK   11  A    between atoms: _26  and  _27
REMARK   12  A    between atoms: _26  and  _29
REMARK   13  A    between atoms: _29  and  _30
REMARK   14  A    between atoms: _33  and  _35
REMARK   15  A    between atoms: _35  and  _36
REMARK   16  A    between atoms: _35  and  _38
REMARK   17  A    between atoms: _38  and  _39
REMARK   18  A    between atoms: _41  and  _43
REMARK   19  A    between atoms: _43  and  _44
REMARK   20  A    between atoms: _43  and  _46
REMARK   21  A    between atoms: _46  and  _47
REMARK   22  A    between atoms: _49  and  _51
REMARK   23  A    between atoms: _51  and  _52
REMARK   24  A    between atoms: _51  and  _54
REMARK   25  A    between atoms: _54  and  _55
REMARK   26  A    between atoms: _58  and  _60
REMARK   27  A    between atoms: _60  and  _61
REMARK   28  A    between atoms: _60  and  _63
REMARK   29  A    between atoms: _63  and  _64
REMARK   30  A    between atoms: _69  and  _71
REMARK   31  A    between atoms: _71  and  _72
REMARK   32  A    between atoms: _71  and  _74
REMARK   33  A    between atoms: _74  and  _75
REMARK   34  A    between atoms: _75  and  _76
REMARK   35  A    between atoms: _79  and  _81
REMARK   36  A    between atoms: _81  and  _82
REMARK   37  A    between atoms: _81  and  _84
REMARK   38  A    between atoms: _84  and  _85
REMARK   39  A    between atoms: _88  and  _90
REMARK   40  A    between atoms: _90  and  _91
REMARK   41  A    between atoms: _93  and  _95
REMARK   42  A    between atoms: _95  and  _96
REMARK   43  A    between atoms: _95  and  _98
REMARK   44  A    between atoms: _98  and  _99
REMARK   45  A    between atoms: _99  and  _100
REMARK   46  A    between atoms: _103  and  _105
REMARK   47  A    between atoms: _105  and  _106
REMARK   48  A    between atoms: _105  and  _108
REMARK   49  A    between atoms: _108  and  _109
REMARK   50  A    between atoms: _109  and  _110
REMARK   51  A    between atoms: _110  and  _111
REMARK   52  A    between atoms: _120  and  _122
REMARK   53  A    between atoms: _122  and  _123
REMARK   54  A    between atoms: _122  and  _125
REMARK   55  A    between atoms: _125  and  _126
REMARK   56  A    between atoms: _126  and  _127
REMARK   57  A    between atoms: _132  and  _134
REMARK   58  A    between atoms: _134  and  _135
REMARK   59  A    between atoms: _134  and  _137
REMARK   60  A    between atoms: _137  and  _138
REMARK   61  A    between atoms: _141  and  _143
REMARK   62  A    between atoms: _143  and  _144
REMARK   63  A    between atoms: _143  and  _146
REMARK   64  A    between atoms: _146  and  _147
REMARK   65  A    between atoms: _150  and  _152
REMARK   66  A    between atoms: _152  and  _153
REMARK   67  A    between atoms: _152  and  _155
REMARK   68  A    between atoms: _155  and  _156
REMARK   69  A    between atoms: _156  and  _157
REMARK   70  A    between atoms: _162  and  _164
REMARK   71  A    between atoms: _164  and  _165
REMARK   72  A    between atoms: _164  and  _167
REMARK   73  A    between atoms: _167  and  _168
REMARK   74  A    between atoms: _173  and  _174
REMARK   75  A    between atoms: _176  and  _178
REMARK   76  A    between atoms: _178  and  _179
REMARK   77  A    between atoms: _178  and  _181
REMARK   78  A    between atoms: _181  and  _182
REMARK   79  A    between atoms: _184  and  _186
REMARK   80  A    between atoms: _186  and  _187
REMARK   81  A    between atoms: _186  and  _189
REMARK   82  A    between atoms: _189  and  _190
REMARK   83  A    between atoms: _200  and  _202
REMARK   84  A    between atoms: _202  and  _203
REMARK   85  A    between atoms: _202  and  _205
REMARK   86  A    between atoms: _205  and  _206
REMARK   87  A    between atoms: _206  and  _207
REMARK   88  A    between atoms: _209  and  _211
REMARK   89  A    between atoms: _211  and  _212
REMARK   90  A    between atoms: _214  and  _216
REMARK   91  A    between atoms: _216  and  _217
REMARK   92  A    between atoms: _216  and  _219
REMARK   93  A    between atoms: _219  and  _220
REMARK   94  A    between atoms: _223  and  _225
REMARK   95  A    between atoms: _225  and  _226
REMARK   96  A    between atoms: _225  and  _228
REMARK   97  A    between atoms: _228  and  _229
REMARK   98  A    between atoms: _229  and  _230
REMARK   99  A    between atoms: _232  and  _234
REMARK  100  A    between atoms: _234  and  _235
REMARK  101  A    between atoms: _234  and  _237
REMARK  102  A    between atoms: _240  and  _242
REMARK  103  A    between atoms: _242  and  _243
REMARK  104  A    between atoms: _242  and  _245
REMARK  105  A    between atoms: _245  and  _246
REMARK  106  A    between atoms: _252  and  _254
REMARK  107  A    between atoms: _254  and  _255
REMARK  108  A    between atoms: _258  and  _260
REMARK  109  A    between atoms: _260  and  _261
REMARK  110  A    between atoms: _260  and  _263
REMARK  111  A    between atoms: _263  and  _264
REMARK  112  A    between atoms: _264  and  _265
REMARK  113  A    between atoms: _267  and  _269
REMARK  114  A    between atoms: _269  and  _270
REMARK  115  A    between atoms: _272  and  _274
REMARK  116  A    between atoms: _274  and  _275
REMARK  117  A    between atoms: _274  and  _277
REMARK  118  A    between atoms: _277  and  _278
REMARK  119  A    between atoms: _288  and  _290
REMARK  120  A    between atoms: _290  and  _291
REMARK  121  A    between atoms: _290  and  _293
REMARK  122  A    between atoms: _293  and  _294
REMARK  123  A    between atoms: _294  and  _295
REMARK  124  A    between atoms: _295  and  _296
REMARK  125  A    between atoms: _305  and  _307
REMARK  126  A    between atoms: _307  and  _308
REMARK  127  A    between atoms: _307  and  _310
REMARK  128  A    between atoms: _310  and  _311
REMARK  129  A    between atoms: _313  and  _315
REMARK  130  A    between atoms: _315  and  _316
REMARK  131  A    between atoms: _315  and  _318
REMARK  132  A    between atoms: _318  and  _319
REMARK  133  A    between atoms: _322  and  _324
REMARK  134  A    between atoms: _324  and  _325
REMARK  135  A    between atoms: _324  and  _327
REMARK  136  A    between atoms: _327  and  _328
REMARK  137  A    between atoms: _333  and  _334
REMARK  138  A    between atoms: _336  and  _338
REMARK  139  A    between atoms: _338  and  _339
REMARK  140  A    between atoms: _338  and  _341
REMARK  141  A    between atoms: _341  and  _342
REMARK  142  A    between atoms: _348  and  _350
REMARK  143  A    between atoms: _350  and  _351
REMARK  144  A    between atoms: _354  and  _356
REMARK  145  A    between atoms: _356  and  _357
REMARK  146  A    between atoms: _356  and  _359
REMARK  147  A    between atoms: _359  and  _360
REMARK  148  A    between atoms: _363  and  _365
REMARK  149  A    between atoms: _365  and  _366
REMARK  150  A    between atoms: _365  and  _368
REMARK  151  A    between atoms: _368  and  _369
REMARK  152  A    between atoms: _371  and  _373
REMARK  153  A    between atoms: _373  and  _374
REMARK  154  A    between atoms: _373  and  _376
REMARK  155  A    between atoms: _376  and  _377
REMARK  156  A    between atoms: _377  and  _378
REMARK  157  A    between atoms: _380  and  _382
REMARK  158  A    between atoms: _382  and  _383
REMARK  159  A    between atoms: _382  and  _385
REMARK  160  A    between atoms: _385  and  _386
REMARK  161  A    between atoms: _386  and  _387
REMARK  162  A    between atoms: _392  and  _394
REMARK  163  A    between atoms: _394  and  _395
REMARK  164  A    between atoms: _394  and  _397
REMARK  165  A    between atoms: _399  and  _401
REMARK  166  A    between atoms: _401  and  _402
REMARK  167  A    between atoms: _401  and  _404
REMARK  168  A    between atoms: _404  and  _405
REMARK  169  A    between atoms: _405  and  _406
REMARK  170  A    between atoms: _408  and  _410
REMARK  171  A    between atoms: _410  and  _411
REMARK  172  A    between atoms: _410  and  _413
REMARK  173  A    between atoms: _413  and  _414
REMARK  174  A    between atoms: _417  and  _419
REMARK  175  A    between atoms: _419  and  _420
REMARK  176  A    between atoms: _423  and  _425
REMARK  177  A    between atoms: _425  and  _426
REMARK  178  A    between atoms: _425  and  _428
REMARK  179  A    between atoms: _428  and  _429
REMARK  180  A    between atoms: _432  and  _434
REMARK  181  A    between atoms: _434  and  _435
REMARK  182  A    between atoms: _434  and  _437
REMARK  183  A    between atoms: _437  and  _438
REMARK  184  A    between atoms: _443  and  _445
REMARK  185  A    between atoms: _445  and  _446
REMARK  186  A    between atoms: _445  and  _448
REMARK  187  A    between atoms: _448  and  _449
REMARK  188  A    between atoms: _455  and  _457
REMARK  189  A    between atoms: _457  and  _458
REMARK  190  A    between atoms: _457  and  _460
REMARK  191  A    between atoms: _460  and  _461
REMARK  192  A    between atoms: _464  and  _466
REMARK  193  A    between atoms: _466  and  _467
REMARK  194  A    between atoms: _466  and  _469
REMARK  195  A    between atoms: _469  and  _470
REMARK  196  A    between atoms: _476  and  _478
REMARK  197  A    between atoms: _478  and  _479
REMARK  198  A    between atoms: _478  and  _481
REMARK  199  A    between atoms: _481  and  _482
REMARK  200  A    between atoms: _485  and  _487
REMARK  201  A    between atoms: _487  and  _488
REMARK  202  A    between atoms: _487  and  _490
REMARK  203  A    between atoms: _490  and  _491
REMARK  204  A    between atoms: _494  and  _496
REMARK  205  A    between atoms: _496  and  _497
REMARK  206  A    between atoms: _496  and  _499
REMARK  207  A    between atoms: _502  and  _504
REMARK  208  A    between atoms: _504  and  _505
REMARK  209  A    between atoms: _504  and  _507
REMARK  210  A    between atoms: _507  and  _508
REMARK  211  A    between atoms: _511  and  _513
REMARK  212  A    between atoms: _513  and  _514
REMARK  213  A    between atoms: _513  and  _516
REMARK  214  A    between atoms: _516  and  _517
REMARK  215  A    between atoms: _524  and  _525
REMARK  216  A    between atoms: _530  and  _532
REMARK  217  A    between atoms: _532  and  _533
REMARK  218  A    between atoms: _532  and  _535
REMARK  219  A    between atoms: _535  and  _536
REMARK  220  A    between atoms: _536  and  _537
REMARK  221  A    between atoms: _539  and  _541
REMARK  222  A    between atoms: _541  and  _542
REMARK  223  A    between atoms: _541  and  _544
REMARK  224  A    between atoms: _544  and  _545
REMARK  225  A    between atoms: _545  and  _546
REMARK  226  A    between atoms: _548  and  _550
REMARK  227  A    between atoms: _550  and  _551
REMARK  228  A    between atoms: _554  and  _556
REMARK  229  A    between atoms: _556  and  _557
REMARK  230  A    between atoms: _556  and  _559
REMARK  231  A    between atoms: _559  and  _560
REMARK  232  A    between atoms: _560  and  _561
REMARK  233  A    between atoms: _564  and  _566
REMARK  234  A    between atoms: _566  and  _567
REMARK  235  A    between atoms: _566  and  _569
REMARK  236  A    between atoms: _569  and  _570
REMARK  237  A    between atoms: _573  and  _575
REMARK  238  A    between atoms: _575  and  _576
REMARK  239  A    between atoms: _575  and  _578
REMARK  240  A    between atoms: _578  and  _579
REMARK  241  A    between atoms: _582  and  _584
REMARK  242  A    between atoms: _584  and  _585
REMARK  243  A    between atoms: _584  and  _587
REMARK  244  A    between atoms: _587  and  _588
REMARK  245  A    between atoms: _590  and  _592
REMARK  246  A    between atoms: _592  and  _593
REMARK  247  A    between atoms: _592  and  _595
REMARK  248  A    between atoms: _598  and  _600
REMARK  249  A    between atoms: _600  and  _601
REMARK  250  A    between atoms: _600  and  _603
REMARK  251  A    between atoms: _603  and  _604
REMARK  252  A    between atoms: _604  and  _605
REMARK  253  A    between atoms: _610  and  _612
REMARK  254  A    between atoms: _612  and  _613
REMARK  255  A    between atoms: _612  and  _615
REMARK  256  A    between atoms: _619  and  _620
REMARK  257  A    between atoms: _625  and  _627
REMARK  258  A    between atoms: _627  and  _628
REMARK  259  A    between atoms: _627  and  _630
REMARK  260  A    between atoms: _630  and  _631
REMARK                            x       y       z     vdW  Elec       q    Type
REMARK                         _______ _______ _______ _____ _____    ______ ____
ROOT
ATOM      1  O   HOH     1      22.960   1.123  13.437  0.00  0.00    +0.000 OA
ENDROOT
TORSDOF 0
REMARK  Name = ../refined-set-2016/3b66/3b66_pocket.pdb
REMARK  260 active torsions:
REMARK  status: ('A' for Active; 'I' for Inactive)
REMARK    1  A    between atoms: _1  and  _3
REMARK    2  A    between atoms: _3  and  _4
REMARK    3  A    between atoms: _3  and  _6
REMARK    4  A    between atoms: _9  and  _11
REMARK    5  A    between atoms: _11  and  _12
REMARK    6  A    between atoms: _15  and  _17
REMARK    7  A    between atoms: _17  and  _18
REMARK    8  A    between atoms: _17  and  _20
REMARK    9  A    between atoms: _20  and  _21
REMARK   10  A    between atoms: _24  and  _26
REMARK   11  A    between atoms: _26  and  _27
REMARK   12  A    between atoms: _26  and  _29
REMARK   13  A    between atoms: _29  and  _30
REMARK   14  A    between atoms: _33  and  _35
REMARK   15  A    between atoms: _35  and  _36
REMARK   16  A    between atoms: _35  and  _38
REMARK   17  A    between atoms: _38  and  _39
REMARK   18  A    between atoms: _41  and  _43
REMARK   19  A    between atoms: _43  and  _44
REMARK   20  A    between atoms: _43  and  _46
REMARK   21  A    between atoms: _46  and  _47
REMARK   22  A    between atoms: _49  and  _51
REMARK   23  A    between atoms: _51  and  _52
REMARK   24  A    between atoms: _51  and  _54
REMARK   25  A    between atoms: _54  and  _55
REMARK   26  A    between atoms: _58  and  _60
REMARK   27  A    between atoms: _60  and  _61
REMARK   28  A    between atoms: _60  and  _63
REMARK   29  A    between atoms: _63  and  _64
REMARK   30  A    between atoms: _69  and  _71
REMARK   31  A    between atoms: _71  and  _72
REMARK   32  A    between atoms: _71  and  _74
REMARK   33  A    between atoms: _74  and  _75
REMARK   34  A    between atoms: _75  and  _76
REMARK   35  A    between atoms: _79  and  _81
REMARK   36  A    between atoms: _81  and  _82
REMARK   37  A    between atoms: _81  and  _84
REMARK   38  A    between atoms: _84  and  _85
REMARK   39  A    between atoms: _88  and  _90
REMARK   40  A    between atoms: _90  and  _91
REMARK   41  A    between atoms: _93  and  _95
REMARK   42  A    between atoms: _95  and  _96
REMARK   43  A    between atoms: _95  and  _98
REMARK   44  A    between atoms: _98  and  _99
REMARK   45  A    between atoms: _99  and  _100
REMARK   46  A    between atoms: _103  and  _105
REMARK   47  A    between atoms: _105  and  _106
REMARK   48  A    between atoms: _105  and  _108
REMARK   49  A    between atoms: _108  and  _109
REMARK   50  A    between atoms: _109  and  _110
REMARK   51  A    between atoms: _110  and  _111
REMARK   52  A    between atoms: _120  and  _122
REMARK   53  A    between atoms: _122  and  _123
REMARK   54  A    between atoms: _122  and  _125
REMARK   55  A    between atoms: _125  and  _126
REMARK   56  A    between atoms: _126  and  _127
REMARK   57  A    between atoms: _132  and  _134
REMARK   58  A    between atoms: _134  and  _135
REMARK   59  A    between atoms: _134  and  _137
REMARK   60  A    between atoms: _137  and  _138
REMARK   61  A    between atoms: _141  and  _143
REMARK   62  A    between atoms: _143  and  _144
REMARK   63  A    between atoms: _143  and  _146
REMARK   64  A    between atoms: _146  and  _147
REMARK   65  A    between atoms: _150  and  _152
REMARK   66  A    between atoms: _152  and  _153
REMARK   67  A    between atoms: _152  and  _155
REMARK   68  A    between atoms: _155  and  _156
REMARK   69  A    between atoms: _156  and  _157
REMARK   70  A    between atoms: _162  and  _164
REMARK   71  A    between atoms: _164  and  _165
REMARK   72  A    between atoms: _164  and  _167
REMARK   73  A    between atoms: _167  and  _168
REMARK   74  A    between atoms: _173  and  _174
REMARK   75  A    between atoms: _176  and  _178
REMARK   76  A    between atoms: _178  and  _179
REMARK   77  A    between atoms: _178  and  _181
REMARK   78  A    between atoms: _181  and  _182
REMARK   79  A    between atoms: _184  and  _186
REMARK   80  A    between atoms: _186  and  _187
REMARK   81  A    between atoms: _186  and  _189
REMARK   82  A    between atoms: _189  and  _190
REMARK   83  A    between atoms: _200  and  _202
REMARK   84  A    between atoms: _202  and  _203
REMARK   85  A    between atoms: _202  and  _205
REMARK   86  A    between atoms: _205  and  _206
REMARK   87  A    between atoms: _206  and  _207
REMARK   88  A    between atoms: _209  and  _211
REMARK   89  A    between atoms: _211  and  _212
REMARK   90  A    between atoms: _214  and  _216
REMARK   91  A    between atoms: _216  and  _217
REMARK   92  A    between atoms: _216  and  _219
REMARK   93  A    between atoms: _219  and  _220
REMARK   94  A    between atoms: _223  and  _225
REMARK   95  A    between atoms: _225  and  _226
REMARK   96  A    between atoms: _225  and  _228
REMARK   97  A    between atoms: _228  and  _229
REMARK   98  A    between atoms: _229  and  _230
REMARK   99  A    between atoms: _232  and  _234
REMARK  100  A    between atoms: _234  and  _235
REMARK  101  A    between atoms: _234  and  _237
REMARK  102  A    between atoms: _240  and  _242
REMARK  103  A    between atoms: _242  and  _243
REMARK  104  A    between atoms: _242  and  _245
REMARK  105  A    between atoms: _245  and  _246
REMARK  106  A    between atoms: _252  and  _254
REMARK  107  A    between atoms: _254  and  _255
REMARK  108  A    between atoms: _258  and  _260
REMARK  109  A    between atoms: _260  and  _261
REMARK  110  A    between atoms: _260  and  _263
REMARK  111  A    between atoms: _263  and  _264
REMARK  112  A    between atoms: _264  and  _265
REMARK  113  A    between atoms: _267  and  _269
REMARK  114  A    between atoms: _269  and  _270
REMARK  115  A    between atoms: _272  and  _274
REMARK  116  A    between atoms: _274  and  _275
REMARK  117  A    between atoms: _274  and  _277
REMARK  118  A    between atoms: _277  and  _278
REMARK  119  A    between atoms: _288  and  _290
REMARK  120  A    between atoms: _290  and  _291
REMARK  121  A    between atoms: _290  and  _293
REMARK  122  A    between atoms: _293  and  _294
REMARK  123  A    between atoms: _294  and  _295
REMARK  124  A    between atoms: _295  and  _296
REMARK  125  A    between atoms: _305  and  _307
REMARK  126  A    between atoms: _307  and  _308
REMARK  127  A    between atoms: _307  and  _310
REMARK  128  A    between atoms: _310  and  _311
REMARK  129  A    between atoms: _313  and  _315
REMARK  130  A    between atoms: _315  and  _316
REMARK  131  A    between atoms: _315  and  _318
REMARK  132  A    between atoms: _318  and  _319
REMARK  133  A    between atoms: _322  and  _324
REMARK  134  A    between atoms: _324  and  _325
REMARK  135  A    between atoms: _324  and  _327
REMARK  136  A    between atoms: _327  and  _328
REMARK  137  A    between atoms: _333  and  _334
REMARK  138  A    between atoms: _336  and  _338
REMARK  139  A    between atoms: _338  and  _339
REMARK  140  A    between atoms: _338  and  _341
REMARK  141  A    between atoms: _341  and  _342
REMARK  142  A    between atoms: _348  and  _350
REMARK  143  A    between atoms: _350  and  _351
REMARK  144  A    between atoms: _354  and  _356
REMARK  145  A    between atoms: _356  and  _357
REMARK  146  A    between atoms: _356  and  _359
REMARK  147  A    between atoms: _359  and  _360
REMARK  148  A    between atoms: _363  and  _365
REMARK  149  A    between atoms: _365  and  _366
REMARK  150  A    between atoms: _365  and  _368
REMARK  151  A    between atoms: _368  and  _369
REMARK  152  A    between atoms: _371  and  _373
REMARK  153  A    between atoms: _373  and  _374
REMARK  154  A    between atoms: _373  and  _376
REMARK  155  A    between atoms: _376  and  _377
REMARK  156  A    between atoms: _377  and  _378
REMARK  157  A    between atoms: _380  and  _382
REMARK  158  A    between atoms: _382  and  _383
REMARK  159  A    between atoms: _382  and  _385
REMARK  160  A    between atoms: _385  and  _386
REMARK  161  A    between atoms: _386  and  _387
REMARK  162  A    between atoms: _392  and  _394
REMARK  163  A    between atoms: _394  and  _395
REMARK  164  A    between atoms: _394  and  _397
REMARK  165  A    between atoms: _399  and  _401
REMARK  166  A    between atoms: _401  and  _402
REMARK  167  A    between atoms: _401  and  _404
REMARK  168  A    between atoms: _404  and  _405
REMARK  169  A    between atoms: _405  and  _406
REMARK  170  A    between atoms: _408  and  _410
REMARK  171  A    between atoms: _410  and  _411
REMARK  172  A    between atoms: _410  and  _413
REMARK  173  A    between atoms: _413  and  _414
REMARK  174  A    between atoms: _417  and  _419
REMARK  175  A    between atoms: _419  and  _420
REMARK  176  A    between atoms: _423  and  _425
REMARK  177  A    between atoms: _425  and  _426
REMARK  178  A    between atoms: _425  and  _428
REMARK  179  A    between atoms: _428  and  _429
REMARK  180  A    between atoms: _432  and  _434
REMARK  181  A    between atoms: _434  and  _435
REMARK  182  A    between atoms: _434  and  _437
REMARK  183  A    between atoms: _437  and  _438
REMARK  184  A    between atoms: _443  and  _445
REMARK  185  A    between atoms: _445  and  _446
REMARK  186  A    between atoms: _445  and  _448
REMARK  187  A    between atoms: _448  and  _449
REMARK  188  A    between atoms: _455  and  _457
REMARK  189  A    between atoms: _457  and  _458
REMARK  190  A    between atoms: _457  and  _460
REMARK  191  A    between atoms: _460  and  _461
REMARK  192  A    between atoms: _464  and  _466
REMARK  193  A    between atoms: _466  and  _467
REMARK  194  A    between atoms: _466  and  _469
REMARK  195  A    between atoms: _469  and  _470
REMARK  196  A    between atoms: _476  and  _478
REMARK  197  A    between atoms: _478  and  _479
REMARK  198  A    between atoms: _478  and  _481
REMARK  199  A    between atoms: _481  and  _482
REMARK  200  A    between atoms: _485  and  _487
REMARK  201  A    between atoms: _487  and  _488
REMARK  202  A    between atoms: _487  and  _490
REMARK  203  A    between atoms: _490  and  _491
REMARK  204  A    between atoms: _494  and  _496
REMARK  205  A    between atoms: _496  and  _497
REMARK  206  A    between atoms: _496  and  _499
REMARK  207  A    between atoms: _502  and  _504
REMARK  208  A    between atoms: _504  and  _505
REMARK  209  A    between atoms: _504  and  _507
REMARK  210  A    between atoms: _507  and  _508
REMARK  211  A    between atoms: _511  and  _513
REMARK  212  A    between atoms: _513  and  _514
REMARK  213  A    between atoms: _513  and  _516
REMARK  214  A    between atoms: _516  and  _517
REMARK  215  A    between atoms: _524  and  _525
REMARK  216  A    between atoms: _530  and  _532
REMARK  217  A    between atoms: _532  and  _533
REMARK  218  A    between atoms: _532  and  _535
REMARK  219  A    between atoms: _535  and  _536
REMARK  220  A    between atoms: _536  and  _537
REMARK  221  A    between atoms: _539  and  _541
REMARK  222  A    between atoms: _541  and  _542
REMARK  223  A    between atoms: _541  and  _544
REMARK  224  A    between atoms: _544  and  _545
REMARK  225  A    between atoms: _545  and  _546
REMARK  226  A    between atoms: _548  and  _550
REMARK  227  A    between atoms: _550  and  _551
REMARK  228  A    between atoms: _554  and  _556
REMARK  229  A    between atoms: _556  and  _557
REMARK  230  A    between atoms: _556  and  _559
REMARK  231  A    between atoms: _559  and  _560
REMARK  232  A    between atoms: _560  and  _561
REMARK  233  A    between atoms: _564  and  _566
REMARK  234  A    between atoms: _566  and  _567
REMARK  235  A    between atoms: _566  and  _569
REMARK  236  A    between atoms: _569  and  _570
REMARK  237  A    between atoms: _573  and  _575
REMARK  238  A    between atoms: _575  and  _576
REMARK  239  A    between atoms: _575  and  _578
REMARK  240  A    between atoms: _578  and  _579
REMARK  241  A    between atoms: _582  and  _584
REMARK  242  A    between atoms: _584  and  _585
REMARK  243  A    between atoms: _584  and  _587
REMARK  244  A    between atoms: _587  and  _588
REMARK  245  A    between atoms: _590  and  _592
REMARK  246  A    between atoms: _592  and  _593
REMARK  247  A    between atoms: _592  and  _595
REMARK  248  A    between atoms: _598  and  _600
REMARK  249  A    between atoms: _600  and  _601
REMARK  250  A    between atoms: _600  and  _603
REMARK  251  A    between atoms: _603  and  _604
REMARK  252  A    between atoms: _604  and  _605
REMARK  253  A    between atoms: _610  and  _612
REMARK  254  A    between atoms: _612  and  _613
REMARK  255  A    between atoms: _612  and  _615
REMARK  256  A    between atoms: _619  and  _620
REMARK  257  A    between atoms: _625  and  _627
REMARK  258  A    between atoms: _627  and  _628
REMARK  259  A    between atoms: _627  and  _630
REMARK  260  A    between atoms: _630  and  _631
REMARK                            x       y       z     vdW  Elec       q    Type
REMARK                         _______ _______ _______ _____ _____    ______ ____
ROOT
ATOM      1  O   HOH     1      23.182   9.578   5.759  0.00  0.00    +0.000 OA
ENDROOT
TORSDOF 0
REMARK  Name = ../refined-set-2016/3b66/3b66_pocket.pdb
REMARK  260 active torsions:
REMARK  status: ('A' for Active; 'I' for Inactive)
REMARK    1  A    between atoms: _1  and  _3
REMARK    2  A    between atoms: _3  and  _4
REMARK    3  A    between atoms: _3  and  _6
REMARK    4  A    between atoms: _9  and  _11
REMARK    5  A    between atoms: _11  and  _12
REMARK    6  A    between atoms: _15  and  _17
REMARK    7  A    between atoms: _17  and  _18
REMARK    8  A    between atoms: _17  and  _20
REMARK    9  A    between atoms: _20  and  _21
REMARK   10  A    between atoms: _24  and  _26
REMARK   11  A    between atoms: _26  and  _27
REMARK   12  A    between atoms: _26  and  _29
REMARK   13  A    between atoms: _29  and  _30
REMARK   14  A    between atoms: _33  and  _35
REMARK   15  A    between atoms: _35  and  _36
REMARK   16  A    between atoms: _35  and  _38
REMARK   17  A    between atoms: _38  and  _39
REMARK   18  A    between atoms: _41  and  _43
REMARK   19  A    between atoms: _43  and  _44
REMARK   20  A    between atoms: _43  and  _46
REMARK   21  A    between atoms: _46  and  _47
REMARK   22  A    between atoms: _49  and  _51
REMARK   23  A    between atoms: _51  and  _52
REMARK   24  A    between atoms: _51  and  _54
REMARK   25  A    between atoms: _54  and  _55
REMARK   26  A    between atoms: _58  and  _60
REMARK   27  A    between atoms: _60  and  _61
REMARK   28  A    between atoms: _60  and  _63
REMARK   29  A    between atoms: _63  and  _64
REMARK   30  A    between atoms: _69  and  _71
REMARK   31  A    between atoms: _71  and  _72
REMARK   32  A    between atoms: _71  and  _74
REMARK   33  A    between atoms: _74  and  _75
REMARK   34  A    between atoms: _75  and  _76
REMARK   35  A    between atoms: _79  and  _81
REMARK   36  A    between atoms: _81  and  _82
REMARK   37  A    between atoms: _81  and  _84
REMARK   38  A    between atoms: _84  and  _85
REMARK   39  A    between atoms: _88  and  _90
REMARK   40  A    between atoms: _90  and  _91
REMARK   41  A    between atoms: _93  and  _95
REMARK   42  A    between atoms: _95  and  _96
REMARK   43  A    between atoms: _95  and  _98
REMARK   44  A    between atoms: _98  and  _99
REMARK   45  A    between atoms: _99  and  _100
REMARK   46  A    between atoms: _103  and  _105
REMARK   47  A    between atoms: _105  and  _106
REMARK   48  A    between atoms: _105  and  _108
REMARK   49  A    between atoms: _108  and  _109
REMARK   50  A    between atoms: _109  and  _110
REMARK   51  A    between atoms: _110  and  _111
REMARK   52  A    between atoms: _120  and  _122
REMARK   53  A    between atoms: _122  and  _123
REMARK   54  A    between atoms: _122  and  _125
REMARK   55  A    between atoms: _125  and  _126
REMARK   56  A    between atoms: _126  and  _127
REMARK   57  A    between atoms: _132  and  _134
REMARK   58  A    between atoms: _134  and  _135
REMARK   59  A    between atoms: _134  and  _137
REMARK   60  A    between atoms: _137  and  _138
REMARK   61  A    between atoms: _141  and  _143
REMARK   62  A    between atoms: _143  and  _144
REMARK   63  A    between atoms: _143  and  _146
REMARK   64  A    between atoms: _146  and  _147
REMARK   65  A    between atoms: _150  and  _152
REMARK   66  A    between atoms: _152  and  _153
REMARK   67  A    between atoms: _152  and  _155
REMARK   68  A    between atoms: _155  and  _156
REMARK   69  A    between atoms: _156  and  _157
REMARK   70  A    between atoms: _162  and  _164
REMARK   71  A    between atoms: _164  and  _165
REMARK   72  A    between atoms: _164  and  _167
REMARK   73  A    between atoms: _167  and  _168
REMARK   74  A    between atoms: _173  and  _174
REMARK   75  A    between atoms: _176  and  _178
REMARK   76  A    between atoms: _178  and  _179
REMARK   77  A    between atoms: _178  and  _181
REMARK   78  A    between atoms: _181  and  _182
REMARK   79  A    between atoms: _184  and  _186
REMARK   80  A    between atoms: _186  and  _187
REMARK   81  A    between atoms: _186  and  _189
REMARK   82  A    between atoms: _189  and  _190
REMARK   83  A    between atoms: _200  and  _202
REMARK   84  A    between atoms: _202  and  _203
REMARK   85  A    between atoms: _202  and  _205
REMARK   86  A    between atoms: _205  and  _206
REMARK   87  A    between atoms: _206  and  _207
REMARK   88  A    between atoms: _209  and  _211
REMARK   89  A    between atoms: _211  and  _212
REMARK   90  A    between atoms: _214  and  _216
REMARK   91  A    between atoms: _216  and  _217
REMARK   92  A    between atoms: _216  and  _219
REMARK   93  A    between atoms: _219  and  _220
REMARK   94  A    between atoms: _223  and  _225
REMARK   95  A    between atoms: _225  and  _226
REMARK   96  A    between atoms: _225  and  _228
REMARK   97  A    between atoms: _228  and  _229
REMARK   98  A    between atoms: _229  and  _230
REMARK   99  A    between atoms: _232  and  _234
REMARK  100  A    between atoms: _234  and  _235
REMARK  101  A    between atoms: _234  and  _237
REMARK  102  A    between atoms: _240  and  _242
REMARK  103  A    between atoms: _242  and  _243
REMARK  104  A    between atoms: _242  and  _245
REMARK  105  A    between atoms: _245  and  _246
REMARK  106  A    between atoms: _252  and  _254
REMARK  107  A    between atoms: _254  and  _255
REMARK  108  A    between atoms: _258  and  _260
REMARK  109  A    between atoms: _260  and  _261
REMARK  110  A    between atoms: _260  and  _263
REMARK  111  A    between atoms: _263  and  _264
REMARK  112  A    between atoms: _264  and  _265
REMARK  113  A    between atoms: _267  and  _269
REMARK  114  A    between atoms: _269  and  _270
REMARK  115  A    between atoms: _272  and  _274
REMARK  116  A    between atoms: _274  and  _275
REMARK  117  A    between atoms: _274  and  _277
REMARK  118  A    between atoms: _277  and  _278
REMARK  119  A    between atoms: _288  and  _290
REMARK  120  A    between atoms: _290  and  _291
REMARK  121  A    between atoms: _290  and  _293
REMARK  122  A    between atoms: _293  and  _294
REMARK  123  A    between atoms: _294  and  _295
REMARK  124  A    between atoms: _295  and  _296
REMARK  125  A    between atoms: _305  and  _307
REMARK  126  A    between atoms: _307  and  _308
REMARK  127  A    between atoms: _307  and  _310
REMARK  128  A    between atoms: _310  and  _311
REMARK  129  A    between atoms: _313  and  _315
REMARK  130  A    between atoms: _315  and  _316
REMARK  131  A    between atoms: _315  and  _318
REMARK  132  A    between atoms: _318  and  _319
REMARK  133  A    between atoms: _322  and  _324
REMARK  134  A    between atoms: _324  and  _325
REMARK  135  A    between atoms: _324  and  _327
REMARK  136  A    between atoms: _327  and  _328
REMARK  137  A    between atoms: _333  and  _334
REMARK  138  A    between atoms: _336  and  _338
REMARK  139  A    between atoms: _338  and  _339
REMARK  140  A    between atoms: _338  and  _341
REMARK  141  A    between atoms: _341  and  _342
REMARK  142  A    between atoms: _348  and  _350
REMARK  143  A    between atoms: _350  and  _351
REMARK  144  A    between atoms: _354  and  _356
REMARK  145  A    between atoms: _356  and  _357
REMARK  146  A    between atoms: _356  and  _359
REMARK  147  A    between atoms: _359  and  _360
REMARK  148  A    between atoms: _363  and  _365
REMARK  149  A    between atoms: _365  and  _366
REMARK  150  A    between atoms: _365  and  _368
REMARK  151  A    between atoms: _368  and  _369
REMARK  152  A    between atoms: _371  and  _373
REMARK  153  A    between atoms: _373  and  _374
REMARK  154  A    between atoms: _373  and  _376
REMARK  155  A    between atoms: _376  and  _377
REMARK  156  A    between atoms: _377  and  _378
REMARK  157  A    between atoms: _380  and  _382
REMARK  158  A    between atoms: _382  and  _383
REMARK  159  A    between atoms: _382  and  _385
REMARK  160  A    between atoms: _385  and  _386
REMARK  161  A    between atoms: _386  and  _387
REMARK  162  A    between atoms: _392  and  _394
REMARK  163  A    between atoms: _394  and  _395
REMARK  164  A    between atoms: _394  and  _397
REMARK  165  A    between atoms: _399  and  _401
REMARK  166  A    between atoms: _401  and  _402
REMARK  167  A    between atoms: _401  and  _404
REMARK  168  A    between atoms: _404  and  _405
REMARK  169  A    between atoms: _405  and  _406
REMARK  170  A    between atoms: _408  and  _410
REMARK  171  A    between atoms: _410  and  _411
REMARK  172  A    between atoms: _410  and  _413
REMARK  173  A    between atoms: _413  and  _414
REMARK  174  A    between atoms: _417  and  _419
REMARK  175  A    between atoms: _419  and  _420
REMARK  176  A    between atoms: _423  and  _425
REMARK  177  A    between atoms: _425  and  _426
REMARK  178  A    between atoms: _425  and  _428
REMARK  179  A    between atoms: _428  and  _429
REMARK  180  A    between atoms: _432  and  _434
REMARK  181  A    between atoms: _434  and  _435
REMARK  182  A    between atoms: _434  and  _437
REMARK  183  A    between atoms: _437  and  _438
REMARK  184  A    between atoms: _443  and  _445
REMARK  185  A    between atoms: _445  and  _446
REMARK  186  A    between atoms: _445  and  _448
REMARK  187  A    between atoms: _448  and  _449
REMARK  188  A    between atoms: _455  and  _457
REMARK  189  A    between atoms: _457  and  _458
REMARK  190  A    between atoms: _457  and  _460
REMARK  191  A    between atoms: _460  and  _461
REMARK  192  A    between atoms: _464  and  _466
REMARK  193  A    between atoms: _466  and  _467
REMARK  194  A    between atoms: _466  and  _469
REMARK  195  A    between atoms: _469  and  _470
REMARK  196  A    between atoms: _476  and  _478
REMARK  197  A    between atoms: _478  and  _479
REMARK  198  A    between atoms: _478  and  _481
REMARK  199  A    between atoms: _481  and  _482
REMARK  200  A    between atoms: _485  and  _487
REMARK  201  A    between atoms: _487  and  _488
REMARK  202  A    between atoms: _487  and  _490
REMARK  203  A    between atoms: _490  and  _491
REMARK  204  A    between atoms: _494  and  _496
REMARK  205  A    between atoms: _496  and  _497
REMARK  206  A    between atoms: _496  and  _499
REMARK  207  A    between atoms: _502  and  _504
REMARK  208  A    between atoms: _504  and  _505
REMARK  209  A    between atoms: _504  and  _507
REMARK  210  A    between atoms: _507  and  _508
REMARK  211  A    between atoms: _511  and  _513
REMARK  212  A    between atoms: _513  and  _514
REMARK  213  A    between atoms: _513  and  _516
REMARK  214  A    between atoms: _516  and  _517
REMARK  215  A    between atoms: _524  and  _525
REMARK  216  A    between atoms: _530  and  _532
REMARK  217  A    between atoms: _532  and  _533
REMARK  218  A    between atoms: _532  and  _535
REMARK  219  A    between atoms: _535  and  _536
REMARK  220  A    between atoms: _536  and  _537
REMARK  221  A    between atoms: _539  and  _541
REMARK  222  A    between atoms: _541  and  _542
REMARK  223  A    between atoms: _541  and  _544
REMARK  224  A    between atoms: _544  and  _545
REMARK  225  A    between atoms: _545  and  _546
REMARK  226  A    between atoms: _548  and  _550
REMARK  227  A    between atoms: _550  and  _551
REMARK  228  A    between atoms: _554  and  _556
REMARK  229  A    between atoms: _556  and  _557
REMARK  230  A    between atoms: _556  and  _559
REMARK  231  A    between atoms: _559  and  _560
REMARK  232  A    between atoms: _560  and  _561
REMARK  233  A    between atoms: _564  and  _566
REMARK  234  A    between atoms: _566  and  _567
REMARK  235  A    between atoms: _566  and  _569
REMARK  236  A    between atoms: _569  and  _570
REMARK  237  A    between atoms: _573  and  _575
REMARK  238  A    between atoms: _575  and  _576
REMARK  239  A    between atoms: _575  and  _578
REMARK  240  A    between atoms: _578  and  _579
REMARK  241  A    between atoms: _582  and  _584
REMARK  242  A    between atoms: _584  and  _585
REMARK  243  A    between atoms: _584  and  _587
REMARK  244  A    between atoms: _587  and  _588
REMARK  245  A    between atoms: _590  and  _592
REMARK  246  A    between atoms: _592  and  _593
REMARK  247  A    between atoms: _592  and  _595
REMARK  248  A    between atoms: _598  and  _600
REMARK  249  A    between atoms: _600  and  _601
REMARK  250  A    between atoms: _600  and  _603
REMARK  251  A    between atoms: _603  and  _604
REMARK  252  A    between atoms: _604  and  _605
REMARK  253  A    between atoms: _610  and  _612
REMARK  254  A    between atoms: _612  and  _613
REMARK  255  A    between atoms: _612  and  _615
REMARK  256  A    between atoms: _619  and  _620
REMARK  257  A    between atoms: _625  and  _627
REMARK  258  A    between atoms: _627  and  _628
REMARK  259  A    between atoms: _627  and  _630
REMARK  260  A    between atoms: _630  and  _631
REMARK                            x       y       z     vdW  Elec       q    Type
REMARK                         _______ _______ _______ _____ _____    ______ ____
ROOT
ATOM      1  O   HOH     1      26.164  12.268   1.940  0.00  0.00    +0.000 OA
ENDROOT
TORSDOF 0
REMARK  Name = ../refined-set-2016/3b66/3b66_pocket.pdb
REMARK  260 active torsions:
REMARK  status: ('A' for Active; 'I' for Inactive)
REMARK    1  A    between atoms: _1  and  _3
REMARK    2  A    between atoms: _3  and  _4
REMARK    3  A    between atoms: _3  and  _6
REMARK    4  A    between atoms: _9  and  _11
REMARK    5  A    between atoms: _11  and  _12
REMARK    6  A    between atoms: _15  and  _17
REMARK    7  A    between atoms: _17  and  _18
REMARK    8  A    between atoms: _17  and  _20
REMARK    9  A    between atoms: _20  and  _21
REMARK   10  A    between atoms: _24  and  _26
REMARK   11  A    between atoms: _26  and  _27
REMARK   12  A    between atoms: _26  and  _29
REMARK   13  A    between atoms: _29  and  _30
REMARK   14  A    between atoms: _33  and  _35
REMARK   15  A    between atoms: _35  and  _36
REMARK   16  A    between atoms: _35  and  _38
REMARK   17  A    between atoms: _38  and  _39
REMARK   18  A    between atoms: _41  and  _43
REMARK   19  A    between atoms: _43  and  _44
REMARK   20  A    between atoms: _43  and  _46
REMARK   21  A    between atoms: _46  and  _47
REMARK   22  A    between atoms: _49  and  _51
REMARK   23  A    between atoms: _51  and  _52
REMARK   24  A    between atoms: _51  and  _54
REMARK   25  A    between atoms: _54  and  _55
REMARK   26  A    between atoms: _58  and  _60
REMARK   27  A    between atoms: _60  and  _61
REMARK   28  A    between atoms: _60  and  _63
REMARK   29  A    between atoms: _63  and  _64
REMARK   30  A    between atoms: _69  and  _71
REMARK   31  A    between atoms: _71  and  _72
REMARK   32  A    between atoms: _71  and  _74
REMARK   33  A    between atoms: _74  and  _75
REMARK   34  A    between atoms: _75  and  _76
REMARK   35  A    between atoms: _79  and  _81
REMARK   36  A    between atoms: _81  and  _82
REMARK   37  A    between atoms: _81  and  _84
REMARK   38  A    between atoms: _84  and  _85
REMARK   39  A    between atoms: _88  and  _90
REMARK   40  A    between atoms: _90  and  _91
REMARK   41  A    between atoms: _93  and  _95
REMARK   42  A    between atoms: _95  and  _96
REMARK   43  A    between atoms: _95  and  _98
REMARK   44  A    between atoms: _98  and  _99
REMARK   45  A    between atoms: _99  and  _100
REMARK   46  A    between atoms: _103  and  _105
REMARK   47  A    between atoms: _105  and  _106
REMARK   48  A    between atoms: _105  and  _108
REMARK   49  A    between atoms: _108  and  _109
REMARK   50  A    between atoms: _109  and  _110
REMARK   51  A    between atoms: _110  and  _111
REMARK   52  A    between atoms: _120  and  _122
REMARK   53  A    between atoms: _122  and  _123
REMARK   54  A    between atoms: _122  and  _125
REMARK   55  A    between atoms: _125  and  _126
REMARK   56  A    between atoms: _126  and  _127
REMARK   57  A    between atoms: _132  and  _134
REMARK   58  A    between atoms: _134  and  _135
REMARK   59  A    between atoms: _134  and  _137
REMARK   60  A    between atoms: _137  and  _138
REMARK   61  A    between atoms: _141  and  _143
REMARK   62  A    between atoms: _143  and  _144
REMARK   63  A    between atoms: _143  and  _146
REMARK   64  A    between atoms: _146  and  _147
REMARK   65  A    between atoms: _150  and  _152
REMARK   66  A    between atoms: _152  and  _153
REMARK   67  A    between atoms: _152  and  _155
REMARK   68  A    between atoms: _155  and  _156
REMARK   69  A    between atoms: _156  and  _157
REMARK   70  A    between atoms: _162  and  _164
REMARK   71  A    between atoms: _164  and  _165
REMARK   72  A    between atoms: _164  and  _167
REMARK   73  A    between atoms: _167  and  _168
REMARK   74  A    between atoms: _173  and  _174
REMARK   75  A    between atoms: _176  and  _178
REMARK   76  A    between atoms: _178  and  _179
REMARK   77  A    between atoms: _178  and  _181
REMARK   78  A    between atoms: _181  and  _182
REMARK   79  A    between atoms: _184  and  _186
REMARK   80  A    between atoms: _186  and  _187
REMARK   81  A    between atoms: _186  and  _189
REMARK   82  A    between atoms: _189  and  _190
REMARK   83  A    between atoms: _200  and  _202
REMARK   84  A    between atoms: _202  and  _203
REMARK   85  A    between atoms: _202  and  _205
REMARK   86  A    between atoms: _205  and  _206
REMARK   87  A    between atoms: _206  and  _207
REMARK   88  A    between atoms: _209  and  _211
REMARK   89  A    between atoms: _211  and  _212
REMARK   90  A    between atoms: _214  and  _216
REMARK   91  A    between atoms: _216  and  _217
REMARK   92  A    between atoms: _216  and  _219
REMARK   93  A    between atoms: _219  and  _220
REMARK   94  A    between atoms: _223  and  _225
REMARK   95  A    between atoms: _225  and  _226
REMARK   96  A    between atoms: _225  and  _228
REMARK   97  A    between atoms: _228  and  _229
REMARK   98  A    between atoms: _229  and  _230
REMARK   99  A    between atoms: _232  and  _234
REMARK  100  A    between atoms: _234  and  _235
REMARK  101  A    between atoms: _234  and  _237
REMARK  102  A    between atoms: _240  and  _242
REMARK  103  A    between atoms: _242  and  _243
REMARK  104  A    between atoms: _242  and  _245
REMARK  105  A    between atoms: _245  and  _246
REMARK  106  A    between atoms: _252  and  _254
REMARK  107  A    between atoms: _254  and  _255
REMARK  108  A    between atoms: _258  and  _260
REMARK  109  A    between atoms: _260  and  _261
REMARK  110  A    between atoms: _260  and  _263
REMARK  111  A    between atoms: _263  and  _264
REMARK  112  A    between atoms: _264  and  _265
REMARK  113  A    between atoms: _267  and  _269
REMARK  114  A    between atoms: _269  and  _270
REMARK  115  A    between atoms: _272  and  _274
REMARK  116  A    between atoms: _274  and  _275
REMARK  117  A    between atoms: _274  and  _277
REMARK  118  A    between atoms: _277  and  _278
REMARK  119  A    between atoms: _288  and  _290
REMARK  120  A    between atoms: _290  and  _291
REMARK  121  A    between atoms: _290  and  _293
REMARK  122  A    between atoms: _293  and  _294
REMARK  123  A    between atoms: _294  and  _295
REMARK  124  A    between atoms: _295  and  _296
REMARK  125  A    between atoms: _305  and  _307
REMARK  126  A    between atoms: _307  and  _308
REMARK  127  A    between atoms: _307  and  _310
REMARK  128  A    between atoms: _310  and  _311
REMARK  129  A    between atoms: _313  and  _315
REMARK  130  A    between atoms: _315  and  _316
REMARK  131  A    between atoms: _315  and  _318
REMARK  132  A    between atoms: _318  and  _319
REMARK  133  A    between atoms: _322  and  _324
REMARK  134  A    between atoms: _324  and  _325
REMARK  135  A    between atoms: _324  and  _327
REMARK  136  A    between atoms: _327  and  _328
REMARK  137  A    between atoms: _333  and  _334
REMARK  138  A    between atoms: _336  and  _338
REMARK  139  A    between atoms: _338  and  _339
REMARK  140  A    between atoms: _338  and  _341
REMARK  141  A    between atoms: _341  and  _342
REMARK  142  A    between atoms: _348  and  _350
REMARK  143  A    between atoms: _350  and  _351
REMARK  144  A    between atoms: _354  and  _356
REMARK  145  A    between atoms: _356  and  _357
REMARK  146  A    between atoms: _356  and  _359
REMARK  147  A    between atoms: _359  and  _360
REMARK  148  A    between atoms: _363  and  _365
REMARK  149  A    between atoms: _365  and  _366
REMARK  150  A    between atoms: _365  and  _368
REMARK  151  A    between atoms: _368  and  _369
REMARK  152  A    between atoms: _371  and  _373
REMARK  153  A    between atoms: _373  and  _374
REMARK  154  A    between atoms: _373  and  _376
REMARK  155  A    between atoms: _376  and  _377
REMARK  156  A    between atoms: _377  and  _378
REMARK  157  A    between atoms: _380  and  _382
REMARK  158  A    between atoms: _382  and  _383
REMARK  159  A    between atoms: _382  and  _385
REMARK  160  A    between atoms: _385  and  _386
REMARK  161  A    between atoms: _386  and  _387
REMARK  162  A    between atoms: _392  and  _394
REMARK  163  A    between atoms: _394  and  _395
REMARK  164  A    between atoms: _394  and  _397
REMARK  165  A    between atoms: _399  and  _401
REMARK  166  A    between atoms: _401  and  _402
REMARK  167  A    between atoms: _401  and  _404
REMARK  168  A    between atoms: _404  and  _405
REMARK  169  A    between atoms: _405  and  _406
REMARK  170  A    between atoms: _408  and  _410
REMARK  171  A    between atoms: _410  and  _411
REMARK  172  A    between atoms: _410  and  _413
REMARK  173  A    between atoms: _413  and  _414
REMARK  174  A    between atoms: _417  and  _419
REMARK  175  A    between atoms: _419  and  _420
REMARK  176  A    between atoms: _423  and  _425
REMARK  177  A    between atoms: _425  and  _426
REMARK  178  A    between atoms: _425  and  _428
REMARK  179  A    between atoms: _428  and  _429
REMARK  180  A    between atoms: _432  and  _434
REMARK  181  A    between atoms: _434  and  _435
REMARK  182  A    between atoms: _434  and  _437
REMARK  183  A    between atoms: _437  and  _438
REMARK  184  A    between atoms: _443  and  _445
REMARK  185  A    between atoms: _445  and  _446
REMARK  186  A    between atoms: _445  and  _448
REMARK  187  A    between atoms: _448  and  _449
REMARK  188  A    between atoms: _455  and  _457
REMARK  189  A    between atoms: _457  and  _458
REMARK  190  A    between atoms: _457  and  _460
REMARK  191  A    between atoms: _460  and  _461
REMARK  192  A    between atoms: _464  and  _466
REMARK  193  A    between atoms: _466  and  _467
REMARK  194  A    between atoms: _466  and  _469
REMARK  195  A    between atoms: _469  and  _470
REMARK  196  A    between atoms: _476  and  _478
REMARK  197  A    between atoms: _478  and  _479
REMARK  198  A    between atoms: _478  and  _481
REMARK  199  A    between atoms: _481  and  _482
REMARK  200  A    between atoms: _485  and  _487
REMARK  201  A    between atoms: _487  and  _488
REMARK  202  A    between atoms: _487  and  _490
REMARK  203  A    between atoms: _490  and  _491
REMARK  204  A    between atoms: _494  and  _496
REMARK  205  A    between atoms: _496  and  _497
REMARK  206  A    between atoms: _496  and  _499
REMARK  207  A    between atoms: _502  and  _504
REMARK  208  A    between atoms: _504  and  _505
REMARK  209  A    between atoms: _504  and  _507
REMARK  210  A    between atoms: _507  and  _508
REMARK  211  A    between atoms: _511  and  _513
REMARK  212  A    between atoms: _513  and  _514
REMARK  213  A    between atoms: _513  and  _516
REMARK  214  A    between atoms: _516  and  _517
REMARK  215  A    between atoms: _524  and  _525
REMARK  216  A    between atoms: _530  and  _532
REMARK  217  A    between atoms: _532  and  _533
REMARK  218  A    between atoms: _532  and  _535
REMARK  219  A    between atoms: _535  and  _536
REMARK  220  A    between atoms: _536  and  _537
REMARK  221  A    between atoms: _539  and  _541
REMARK  222  A    between atoms: _541  and  _542
REMARK  223  A    between atoms: _541  and  _544
REMARK  224  A    between atoms: _544  and  _545
REMARK  225  A    between atoms: _545  and  _546
REMARK  226  A    between atoms: _548  and  _550
REMARK  227  A    between atoms: _550  and  _551
REMARK  228  A    between atoms: _554  and  _556
REMARK  229  A    between atoms: _556  and  _557
REMARK  230  A    between atoms: _556  and  _559
REMARK  231  A    between atoms: _559  and  _560
REMARK  232  A    between atoms: _560  and  _561
REMARK  233  A    between atoms: _564  and  _566
REMARK  234  A    between atoms: _566  and  _567
REMARK  235  A    between atoms: _566  and  _569
REMARK  236  A    between atoms: _569  and  _570
REMARK  237  A    between atoms: _573  and  _575
REMARK  238  A    between atoms: _575  and  _576
REMARK  239  A    between atoms: _575  and  _578
REMARK  240  A    between atoms: _578  and  _579
REMARK  241  A    between atoms: _582  and  _584
REMARK  242  A    between atoms: _584  and  _585
REMARK  243  A    between atoms: _584  and  _587
REMARK  244  A    between atoms: _587  and  _588
REMARK  245  A    between atoms: _590  and  _592
REMARK  246  A    between atoms: _592  and  _593
REMARK  247  A    between atoms: _592  and  _595
REMARK  248  A    between atoms: _598  and  _600
REMARK  249  A    between atoms: _600  and  _601
REMARK  250  A    between atoms: _600  and  _603
REMARK  251  A    between atoms: _603  and  _604
REMARK  252  A    between atoms: _604  and  _605
REMARK  253  A    between atoms: _610  and  _612
REMARK  254  A    between atoms: _612  and  _613
REMARK  255  A    between atoms: _612  and  _615
REMARK  256  A    between atoms: _619  and  _620
REMARK  257  A    between atoms: _625  and  _627
REMARK  258  A    between atoms: _627  and  _628
REMARK  259  A    between atoms: _627  and  _630
REMARK  260  A    between atoms: _630  and  _631
REMARK                            x       y       z     vdW  Elec       q    Type
REMARK                         _______ _______ _______ _____ _____    ______ ____
ROOT
ATOM      1  O   HOH     1      37.672   3.596   0.888  0.00  0.00    +0.000 OA
ENDROOT
TORSDOF 0
REMARK  Name = ../refined-set-2016/3b66/3b66_pocket.pdb
REMARK  260 active torsions:
REMARK  status: ('A' for Active; 'I' for Inactive)
REMARK    1  A    between atoms: _1  and  _3
REMARK    2  A    between atoms: _3  and  _4
REMARK    3  A    between atoms: _3  and  _6
REMARK    4  A    between atoms: _9  and  _11
REMARK    5  A    between atoms: _11  and  _12
REMARK    6  A    between atoms: _15  and  _17
REMARK    7  A    between atoms: _17  and  _18
REMARK    8  A    between atoms: _17  and  _20
REMARK    9  A    between atoms: _20  and  _21
REMARK   10  A    between atoms: _24  and  _26
REMARK   11  A    between atoms: _26  and  _27
REMARK   12  A    between atoms: _26  and  _29
REMARK   13  A    between atoms: _29  and  _30
REMARK   14  A    between atoms: _33  and  _35
REMARK   15  A    between atoms: _35  and  _36
REMARK   16  A    between atoms: _35  and  _38
REMARK   17  A    between atoms: _38  and  _39
REMARK   18  A    between atoms: _41  and  _43
REMARK   19  A    between atoms: _43  and  _44
REMARK   20  A    between atoms: _43  and  _46
REMARK   21  A    between atoms: _46  and  _47
REMARK   22  A    between atoms: _49  and  _51
REMARK   23  A    between atoms: _51  and  _52
REMARK   24  A    between atoms: _51  and  _54
REMARK   25  A    between atoms: _54  and  _55
REMARK   26  A    between atoms: _58  and  _60
REMARK   27  A    between atoms: _60  and  _61
REMARK   28  A    between atoms: _60  and  _63
REMARK   29  A    between atoms: _63  and  _64
REMARK   30  A    between atoms: _69  and  _71
REMARK   31  A    between atoms: _71  and  _72
REMARK   32  A    between atoms: _71  and  _74
REMARK   33  A    between atoms: _74  and  _75
REMARK   34  A    between atoms: _75  and  _76
REMARK   35  A    between atoms: _79  and  _81
REMARK   36  A    between atoms: _81  and  _82
REMARK   37  A    between atoms: _81  and  _84
REMARK   38  A    between atoms: _84  and  _85
REMARK   39  A    between atoms: _88  and  _90
REMARK   40  A    between atoms: _90  and  _91
REMARK   41  A    between atoms: _93  and  _95
REMARK   42  A    between atoms: _95  and  _96
REMARK   43  A    between atoms: _95  and  _98
REMARK   44  A    between atoms: _98  and  _99
REMARK   45  A    between atoms: _99  and  _100
REMARK   46  A    between atoms: _103  and  _105
REMARK   47  A    between atoms: _105  and  _106
REMARK   48  A    between atoms: _105  and  _108
REMARK   49  A    between atoms: _108  and  _109
REMARK   50  A    between atoms: _109  and  _110
REMARK   51  A    between atoms: _110  and  _111
REMARK   52  A    between atoms: _120  and  _122
REMARK   53  A    between atoms: _122  and  _123
REMARK   54  A    between atoms: _122  and  _125
REMARK   55  A    between atoms: _125  and  _126
REMARK   56  A    between atoms: _126  and  _127
REMARK   57  A    between atoms: _132  and  _134
REMARK   58  A    between atoms: _134  and  _135
REMARK   59  A    between atoms: _134  and  _137
REMARK   60  A    between atoms: _137  and  _138
REMARK   61  A    between atoms: _141  and  _143
REMARK   62  A    between atoms: _143  and  _144
REMARK   63  A    between atoms: _143  and  _146
REMARK   64  A    between atoms: _146  and  _147
REMARK   65  A    between atoms: _150  and  _152
REMARK   66  A    between atoms: _152  and  _153
REMARK   67  A    between atoms: _152  and  _155
REMARK   68  A    between atoms: _155  and  _156
REMARK   69  A    between atoms: _156  and  _157
REMARK   70  A    between atoms: _162  and  _164
REMARK   71  A    between atoms: _164  and  _165
REMARK   72  A    between atoms: _164  and  _167
REMARK   73  A    between atoms: _167  and  _168
REMARK   74  A    between atoms: _173  and  _174
REMARK   75  A    between atoms: _176  and  _178
REMARK   76  A    between atoms: _178  and  _179
REMARK   77  A    between atoms: _178  and  _181
REMARK   78  A    between atoms: _181  and  _182
REMARK   79  A    between atoms: _184  and  _186
REMARK   80  A    between atoms: _186  and  _187
REMARK   81  A    between atoms: _186  and  _189
REMARK   82  A    between atoms: _189  and  _190
REMARK   83  A    between atoms: _200  and  _202
REMARK   84  A    between atoms: _202  and  _203
REMARK   85  A    between atoms: _202  and  _205
REMARK   86  A    between atoms: _205  and  _206
REMARK   87  A    between atoms: _206  and  _207
REMARK   88  A    between atoms: _209  and  _211
REMARK   89  A    between atoms: _211  and  _212
REMARK   90  A    between atoms: _214  and  _216
REMARK   91  A    between atoms: _216  and  _217
REMARK   92  A    between atoms: _216  and  _219
REMARK   93  A    between atoms: _219  and  _220
REMARK   94  A    between atoms: _223  and  _225
REMARK   95  A    between atoms: _225  and  _226
REMARK   96  A    between atoms: _225  and  _228
REMARK   97  A    between atoms: _228  and  _229
REMARK   98  A    between atoms: _229  and  _230
REMARK   99  A    between atoms: _232  and  _234
REMARK  100  A    between atoms: _234  and  _235
REMARK  101  A    between atoms: _234  and  _237
REMARK  102  A    between atoms: _240  and  _242
REMARK  103  A    between atoms: _242  and  _243
REMARK  104  A    between atoms: _242  and  _245
REMARK  105  A    between atoms: _245  and  _246
REMARK  106  A    between atoms: _252  and  _254
REMARK  107  A    between atoms: _254  and  _255
REMARK  108  A    between atoms: _258  and  _260
REMARK  109  A    between atoms: _260  and  _261
REMARK  110  A    between atoms: _260  and  _263
REMARK  111  A    between atoms: _263  and  _264
REMARK  112  A    between atoms: _264  and  _265
REMARK  113  A    between atoms: _267  and  _269
REMARK  114  A    between atoms: _269  and  _270
REMARK  115  A    between atoms: _272  and  _274
REMARK  116  A    between atoms: _274  and  _275
REMARK  117  A    between atoms: _274  and  _277
REMARK  118  A    between atoms: _277  and  _278
REMARK  119  A    between atoms: _288  and  _290
REMARK  120  A    between atoms: _290  and  _291
REMARK  121  A    between atoms: _290  and  _293
REMARK  122  A    between atoms: _293  and  _294
REMARK  123  A    between atoms: _294  and  _295
REMARK  124  A    between atoms: _295  and  _296
REMARK  125  A    between atoms: _305  and  _307
REMARK  126  A    between atoms: _307  and  _308
REMARK  127  A    between atoms: _307  and  _310
REMARK  128  A    between atoms: _310  and  _311
REMARK  129  A    between atoms: _313  and  _315
REMARK  130  A    between atoms: _315  and  _316
REMARK  131  A    between atoms: _315  and  _318
REMARK  132  A    between atoms: _318  and  _319
REMARK  133  A    between atoms: _322  and  _324
REMARK  134  A    between atoms: _324  and  _325
REMARK  135  A    between atoms: _324  and  _327
REMARK  136  A    between atoms: _327  and  _328
REMARK  137  A    between atoms: _333  and  _334
REMARK  138  A    between atoms: _336  and  _338
REMARK  139  A    between atoms: _338  and  _339
REMARK  140  A    between atoms: _338  and  _341
REMARK  141  A    between atoms: _341  and  _342
REMARK  142  A    between atoms: _348  and  _350
REMARK  143  A    between atoms: _350  and  _351
REMARK  144  A    between atoms: _354  and  _356
REMARK  145  A    between atoms: _356  and  _357
REMARK  146  A    between atoms: _356  and  _359
REMARK  147  A    between atoms: _359  and  _360
REMARK  148  A    between atoms: _363  and  _365
REMARK  149  A    between atoms: _365  and  _366
REMARK  150  A    between atoms: _365  and  _368
REMARK  151  A    between atoms: _368  and  _369
REMARK  152  A    between atoms: _371  and  _373
REMARK  153  A    between atoms: _373  and  _374
REMARK  154  A    between atoms: _373  and  _376
REMARK  155  A    between atoms: _376  and  _377
REMARK  156  A    between atoms: _377  and  _378
REMARK  157  A    between atoms: _380  and  _382
REMARK  158  A    between atoms: _382  and  _383
REMARK  159  A    between atoms: _382  and  _385
REMARK  160  A    between atoms: _385  and  _386
REMARK  161  A    between atoms: _386  and  _387
REMARK  162  A    between atoms: _392  and  _394
REMARK  163  A    between atoms: _394  and  _395
REMARK  164  A    between atoms: _394  and  _397
REMARK  165  A    between atoms: _399  and  _401
REMARK  166  A    between atoms: _401  and  _402
REMARK  167  A    between atoms: _401  and  _404
REMARK  168  A    between atoms: _404  and  _405
REMARK  169  A    between atoms: _405  and  _406
REMARK  170  A    between atoms: _408  and  _410
REMARK  171  A    between atoms: _410  and  _411
REMARK  172  A    between atoms: _410  and  _413
REMARK  173  A    between atoms: _413  and  _414
REMARK  174  A    between atoms: _417  and  _419
REMARK  175  A    between atoms: _419  and  _420
REMARK  176  A    between atoms: _423  and  _425
REMARK  177  A    between atoms: _425  and  _426
REMARK  178  A    between atoms: _425  and  _428
REMARK  179  A    between atoms: _428  and  _429
REMARK  180  A    between atoms: _432  and  _434
REMARK  181  A    between atoms: _434  and  _435
REMARK  182  A    between atoms: _434  and  _437
REMARK  183  A    between atoms: _437  and  _438
REMARK  184  A    between atoms: _443  and  _445
REMARK  185  A    between atoms: _445  and  _446
REMARK  186  A    between atoms: _445  and  _448
REMARK  187  A    between atoms: _448  and  _449
REMARK  188  A    between atoms: _455  and  _457
REMARK  189  A    between atoms: _457  and  _458
REMARK  190  A    between atoms: _457  and  _460
REMARK  191  A    between atoms: _460  and  _461
REMARK  192  A    between atoms: _464  and  _466
REMARK  193  A    between atoms: _466  and  _467
REMARK  194  A    between atoms: _466  and  _469
REMARK  195  A    between atoms: _469  and  _470
REMARK  196  A    between atoms: _476  and  _478
REMARK  197  A    between atoms: _478  and  _479
REMARK  198  A    between atoms: _478  and  _481
REMARK  199  A    between atoms: _481  and  _482
REMARK  200  A    between atoms: _485  and  _487
REMARK  201  A    between atoms: _487  and  _488
REMARK  202  A    between atoms: _487  and  _490
REMARK  203  A    between atoms: _490  and  _491
REMARK  204  A    between atoms: _494  and  _496
REMARK  205  A    between atoms: _496  and  _497
REMARK  206  A    between atoms: _496  and  _499
REMARK  207  A    between atoms: _502  and  _504
REMARK  208  A    between atoms: _504  and  _505
REMARK  209  A    between atoms: _504  and  _507
REMARK  210  A    between atoms: _507  and  _508
REMARK  211  A    between atoms: _511  and  _513
REMARK  212  A    between atoms: _513  and  _514
REMARK  213  A    between atoms: _513  and  _516
REMARK  214  A    between atoms: _516  and  _517
REMARK  215  A    between atoms: _524  and  _525
REMARK  216  A    between atoms: _530  and  _532
REMARK  217  A    between atoms: _532  and  _533
REMARK  218  A    between atoms: _532  and  _535
REMARK  219  A    between atoms: _535  and  _536
REMARK  220  A    between atoms: _536  and  _537
REMARK  221  A    between atoms: _539  and  _541
REMARK  222  A    between atoms: _541  and  _542
REMARK  223  A    between atoms: _541  and  _544
REMARK  224  A    between atoms: _544  and  _545
REMARK  225  A    between atoms: _545  and  _546
REMARK  226  A    between atoms: _548  and  _550
REMARK  227  A    between atoms: _550  and  _551
REMARK  228  A    between atoms: _554  and  _556
REMARK  229  A    between atoms: _556  and  _557
REMARK  230  A    between atoms: _556  and  _559
REMARK  231  A    between atoms: _559  and  _560
REMARK  232  A    between atoms: _560  and  _561
REMARK  233  A    between atoms: _564  and  _566
REMARK  234  A    between atoms: _566  and  _567
REMARK  235  A    between atoms: _566  and  _569
REMARK  236  A    between atoms: _569  and  _570
REMARK  237  A    between atoms: _573  and  _575
REMARK  238  A    between atoms: _575  and  _576
REMARK  239  A    between atoms: _575  and  _578
REMARK  240  A    between atoms: _578  and  _579
REMARK  241  A    between atoms: _582  and  _584
REMARK  242  A    between atoms: _584  and  _585
REMARK  243  A    between atoms: _584  and  _587
REMARK  244  A    between atoms: _587  and  _588
REMARK  245  A    between atoms: _590  and  _592
REMARK  246  A    between atoms: _592  and  _593
REMARK  247  A    between atoms: _592  and  _595
REMARK  248  A    between atoms: _598  and  _600
REMARK  249  A    between atoms: _600  and  _601
REMARK  250  A    between atoms: _600  and  _603
REMARK  251  A    between atoms: _603  and  _604
REMARK  252  A    between atoms: _604  and  _605
REMARK  253  A    between atoms: _610  and  _612
REMARK  254  A    between atoms: _612  and  _613
REMARK  255  A    between atoms: _612  and  _615
REMARK  256  A    between atoms: _619  and  _620
REMARK  257  A    between atoms: _625  and  _627
REMARK  258  A    between atoms: _627  and  _628
REMARK  259  A    between atoms: _627  and  _630
REMARK  260  A    between atoms: _630  and  _631
REMARK                            x       y       z     vdW  Elec       q    Type
REMARK                         _______ _______ _______ _____ _____    ______ ____
ROOT
ATOM      1  O   HOH     1      24.869  14.721   2.346  0.00  0.00    +0.000 OA
ENDROOT
TORSDOF 0
REMARK  Name = ../refined-set-2016/3b66/3b66_pocket.pdb
REMARK  260 active torsions:
REMARK  status: ('A' for Active; 'I' for Inactive)
REMARK    1  A    between atoms: _1  and  _3
REMARK    2  A    between atoms: _3  and  _4
REMARK    3  A    between atoms: _3  and  _6
REMARK    4  A    between atoms: _9  and  _11
REMARK    5  A    between atoms: _11  and  _12
REMARK    6  A    between atoms: _15  and  _17
REMARK    7  A    between atoms: _17  and  _18
REMARK    8  A    between atoms: _17  and  _20
REMARK    9  A    between atoms: _20  and  _21
REMARK   10  A    between atoms: _24  and  _26
REMARK   11  A    between atoms: _26  and  _27
REMARK   12  A    between atoms: _26  and  _29
REMARK   13  A    between atoms: _29  and  _30
REMARK   14  A    between atoms: _33  and  _35
REMARK   15  A    between atoms: _35  and  _36
REMARK   16  A    between atoms: _35  and  _38
REMARK   17  A    between atoms: _38  and  _39
REMARK   18  A    between atoms: _41  and  _43
REMARK   19  A    between atoms: _43  and  _44
REMARK   20  A    between atoms: _43  and  _46
REMARK   21  A    between atoms: _46  and  _47
REMARK   22  A    between atoms: _49  and  _51
REMARK   23  A    between atoms: _51  and  _52
REMARK   24  A    between atoms: _51  and  _54
REMARK   25  A    between atoms: _54  and  _55
REMARK   26  A    between atoms: _58  and  _60
REMARK   27  A    between atoms: _60  and  _61
REMARK   28  A    between atoms: _60  and  _63
REMARK   29  A    between atoms: _63  and  _64
REMARK   30  A    between atoms: _69  and  _71
REMARK   31  A    between atoms: _71  and  _72
REMARK   32  A    between atoms: _71  and  _74
REMARK   33  A    between atoms: _74  and  _75
REMARK   34  A    between atoms: _75  and  _76
REMARK   35  A    between atoms: _79  and  _81
REMARK   36  A    between atoms: _81  and  _82
REMARK   37  A    between atoms: _81  and  _84
REMARK   38  A    between atoms: _84  and  _85
REMARK   39  A    between atoms: _88  and  _90
REMARK   40  A    between atoms: _90  and  _91
REMARK   41  A    between atoms: _93  and  _95
REMARK   42  A    between atoms: _95  and  _96
REMARK   43  A    between atoms: _95  and  _98
REMARK   44  A    between atoms: _98  and  _99
REMARK   45  A    between atoms: _99  and  _100
REMARK   46  A    between atoms: _103  and  _105
REMARK   47  A    between atoms: _105  and  _106
REMARK   48  A    between atoms: _105  and  _108
REMARK   49  A    between atoms: _108  and  _109
REMARK   50  A    between atoms: _109  and  _110
REMARK   51  A    between atoms: _110  and  _111
REMARK   52  A    between atoms: _120  and  _122
REMARK   53  A    between atoms: _122  and  _123
REMARK   54  A    between atoms: _122  and  _125
REMARK   55  A    between atoms: _125  and  _126
REMARK   56  A    between atoms: _126  and  _127
REMARK   57  A    between atoms: _132  and  _134
REMARK   58  A    between atoms: _134  and  _135
REMARK   59  A    between atoms: _134  and  _137
REMARK   60  A    between atoms: _137  and  _138
REMARK   61  A    between atoms: _141  and  _143
REMARK   62  A    between atoms: _143  and  _144
REMARK   63  A    between atoms: _143  and  _146
REMARK   64  A    between atoms: _146  and  _147
REMARK   65  A    between atoms: _150  and  _152
REMARK   66  A    between atoms: _152  and  _153
REMARK   67  A    between atoms: _152  and  _155
REMARK   68  A    between atoms: _155  and  _156
REMARK   69  A    between atoms: _156  and  _157
REMARK   70  A    between atoms: _162  and  _164
REMARK   71  A    between atoms: _164  and  _165
REMARK   72  A    between atoms: _164  and  _167
REMARK   73  A    between atoms: _167  and  _168
REMARK   74  A    between atoms: _173  and  _174
REMARK   75  A    between atoms: _176  and  _178
REMARK   76  A    between atoms: _178  and  _179
REMARK   77  A    between atoms: _178  and  _181
REMARK   78  A    between atoms: _181  and  _182
REMARK   79  A    between atoms: _184  and  _186
REMARK   80  A    between atoms: _186  and  _187
REMARK   81  A    between atoms: _186  and  _189
REMARK   82  A    between atoms: _189  and  _190
REMARK   83  A    between atoms: _200  and  _202
REMARK   84  A    between atoms: _202  and  _203
REMARK   85  A    between atoms: _202  and  _205
REMARK   86  A    between atoms: _205  and  _206
REMARK   87  A    between atoms: _206  and  _207
REMARK   88  A    between atoms: _209  and  _211
REMARK   89  A    between atoms: _211  and  _212
REMARK   90  A    between atoms: _214  and  _216
REMARK   91  A    between atoms: _216  and  _217
REMARK   92  A    between atoms: _216  and  _219
REMARK   93  A    between atoms: _219  and  _220
REMARK   94  A    between atoms: _223  and  _225
REMARK   95  A    between atoms: _225  and  _226
REMARK   96  A    between atoms: _225  and  _228
REMARK   97  A    between atoms: _228  and  _229
REMARK   98  A    between atoms: _229  and  _230
REMARK   99  A    between atoms: _232  and  _234
REMARK  100  A    between atoms: _234  and  _235
REMARK  101  A    between atoms: _234  and  _237
REMARK  102  A    between atoms: _240  and  _242
REMARK  103  A    between atoms: _242  and  _243
REMARK  104  A    between atoms: _242  and  _245
REMARK  105  A    between atoms: _245  and  _246
REMARK  106  A    between atoms: _252  and  _254
REMARK  107  A    between atoms: _254  and  _255
REMARK  108  A    between atoms: _258  and  _260
REMARK  109  A    between atoms: _260  and  _261
REMARK  110  A    between atoms: _260  and  _263
REMARK  111  A    between atoms: _263  and  _264
REMARK  112  A    between atoms: _264  and  _265
REMARK  113  A    between atoms: _267  and  _269
REMARK  114  A    between atoms: _269  and  _270
REMARK  115  A    between atoms: _272  and  _274
REMARK  116  A    between atoms: _274  and  _275
REMARK  117  A    between atoms: _274  and  _277
REMARK  118  A    between atoms: _277  and  _278
REMARK  119  A    between atoms: _288  and  _290
REMARK  120  A    between atoms: _290  and  _291
REMARK  121  A    between atoms: _290  and  _293
REMARK  122  A    between atoms: _293  and  _294
REMARK  123  A    between atoms: _294  and  _295
REMARK  124  A    between atoms: _295  and  _296
REMARK  125  A    between atoms: _305  and  _307
REMARK  126  A    between atoms: _307  and  _308
REMARK  127  A    between atoms: _307  and  _310
REMARK  128  A    between atoms: _310  and  _311
REMARK  129  A    between atoms: _313  and  _315
REMARK  130  A    between atoms: _315  and  _316
REMARK  131  A    between atoms: _315  and  _318
REMARK  132  A    between atoms: _318  and  _319
REMARK  133  A    between atoms: _322  and  _324
REMARK  134  A    between atoms: _324  and  _325
REMARK  135  A    between atoms: _324  and  _327
REMARK  136  A    between atoms: _327  and  _328
REMARK  137  A    between atoms: _333  and  _334
REMARK  138  A    between atoms: _336  and  _338
REMARK  139  A    between atoms: _338  and  _339
REMARK  140  A    between atoms: _338  and  _341
REMARK  141  A    between atoms: _341  and  _342
REMARK  142  A    between atoms: _348  and  _350
REMARK  143  A    between atoms: _350  and  _351
REMARK  144  A    between atoms: _354  and  _356
REMARK  145  A    between atoms: _356  and  _357
REMARK  146  A    between atoms: _356  and  _359
REMARK  147  A    between atoms: _359  and  _360
REMARK  148  A    between atoms: _363  and  _365
REMARK  149  A    between atoms: _365  and  _366
REMARK  150  A    between atoms: _365  and  _368
REMARK  151  A    between atoms: _368  and  _369
REMARK  152  A    between atoms: _371  and  _373
REMARK  153  A    between atoms: _373  and  _374
REMARK  154  A    between atoms: _373  and  _376
REMARK  155  A    between atoms: _376  and  _377
REMARK  156  A    between atoms: _377  and  _378
REMARK  157  A    between atoms: _380  and  _382
REMARK  158  A    between atoms: _382  and  _383
REMARK  159  A    between atoms: _382  and  _385
REMARK  160  A    between atoms: _385  and  _386
REMARK  161  A    between atoms: _386  and  _387
REMARK  162  A    between atoms: _392  and  _394
REMARK  163  A    between atoms: _394  and  _395
REMARK  164  A    between atoms: _394  and  _397
REMARK  165  A    between atoms: _399  and  _401
REMARK  166  A    between atoms: _401  and  _402
REMARK  167  A    between atoms: _401  and  _404
REMARK  168  A    between atoms: _404  and  _405
REMARK  169  A    between atoms: _405  and  _406
REMARK  170  A    between atoms: _408  and  _410
REMARK  171  A    between atoms: _410  and  _411
REMARK  172  A    between atoms: _410  and  _413
REMARK  173  A    between atoms: _413  and  _414
REMARK  174  A    between atoms: _417  and  _419
REMARK  175  A    between atoms: _419  and  _420
REMARK  176  A    between atoms: _423  and  _425
REMARK  177  A    between atoms: _425  and  _426
REMARK  178  A    between atoms: _425  and  _428
REMARK  179  A    between atoms: _428  and  _429
REMARK  180  A    between atoms: _432  and  _434
REMARK  181  A    between atoms: _434  and  _435
REMARK  182  A    between atoms: _434  and  _437
REMARK  183  A    between atoms: _437  and  _438
REMARK  184  A    between atoms: _443  and  _445
REMARK  185  A    between atoms: _445  and  _446
REMARK  186  A    between atoms: _445  and  _448
REMARK  187  A    between atoms: _448  and  _449
REMARK  188  A    between atoms: _455  and  _457
REMARK  189  A    between atoms: _457  and  _458
REMARK  190  A    between atoms: _457  and  _460
REMARK  191  A    between atoms: _460  and  _461
REMARK  192  A    between atoms: _464  and  _466
REMARK  193  A    between atoms: _466  and  _467
REMARK  194  A    between atoms: _466  and  _469
REMARK  195  A    between atoms: _469  and  _470
REMARK  196  A    between atoms: _476  and  _478
REMARK  197  A    between atoms: _478  and  _479
REMARK  198  A    between atoms: _478  and  _481
REMARK  199  A    between atoms: _481  and  _482
REMARK  200  A    between atoms: _485  and  _487
REMARK  201  A    between atoms: _487  and  _488
REMARK  202  A    between atoms: _487  and  _490
REMARK  203  A    between atoms: _490  and  _491
REMARK  204  A    between atoms: _494  and  _496
REMARK  205  A    between atoms: _496  and  _497
REMARK  206  A    between atoms: _496  and  _499
REMARK  207  A    between atoms: _502  and  _504
REMARK  208  A    between atoms: _504  and  _505
REMARK  209  A    between atoms: _504  and  _507
REMARK  210  A    between atoms: _507  and  _508
REMARK  211  A    between atoms: _511  and  _513
REMARK  212  A    between atoms: _513  and  _514
REMARK  213  A    between atoms: _513  and  _516
REMARK  214  A    between atoms: _516  and  _517
REMARK  215  A    between atoms: _524  and  _525
REMARK  216  A    between atoms: _530  and  _532
REMARK  217  A    between atoms: _532  and  _533
REMARK  218  A    between atoms: _532  and  _535
REMARK  219  A    between atoms: _535  and  _536
REMARK  220  A    between atoms: _536  and  _537
REMARK  221  A    between atoms: _539  and  _541
REMARK  222  A    between atoms: _541  and  _542
REMARK  223  A    between atoms: _541  and  _544
REMARK  224  A    between atoms: _544  and  _545
REMARK  225  A    between atoms: _545  and  _546
REMARK  226  A    between atoms: _548  and  _550
REMARK  227  A    between atoms: _550  and  _551
REMARK  228  A    between atoms: _554  and  _556
REMARK  229  A    between atoms: _556  and  _557
REMARK  230  A    between atoms: _556  and  _559
REMARK  231  A    between atoms: _559  and  _560
REMARK  232  A    between atoms: _560  and  _561
REMARK  233  A    between atoms: _564  and  _566
REMARK  234  A    between atoms: _566  and  _567
REMARK  235  A    between atoms: _566  and  _569
REMARK  236  A    between atoms: _569  and  _570
REMARK  237  A    between atoms: _573  and  _575
REMARK  238  A    between atoms: _575  and  _576
REMARK  239  A    between atoms: _575  and  _578
REMARK  240  A    between atoms: _578  and  _579
REMARK  241  A    between atoms: _582  and  _584
REMARK  242  A    between atoms: _584  and  _585
REMARK  243  A    between atoms: _584  and  _587
REMARK  244  A    between atoms: _587  and  _588
REMARK  245  A    between atoms: _590  and  _592
REMARK  246  A    between atoms: _592  and  _593
REMARK  247  A    between atoms: _592  and  _595
REMARK  248  A    between atoms: _598  and  _600
REMARK  249  A    between atoms: _600  and  _601
REMARK  250  A    between atoms: _600  and  _603
REMARK  251  A    between atoms: _603  and  _604
REMARK  252  A    between atoms: _604  and  _605
REMARK  253  A    between atoms: _610  and  _612
REMARK  254  A    between atoms: _612  and  _613
REMARK  255  A    between atoms: _612  and  _615
REMARK  256  A    between atoms: _619  and  _620
REMARK  257  A    between atoms: _625  and  _627
REMARK  258  A    between atoms: _627  and  _628
REMARK  259  A    between atoms: _627  and  _630
REMARK  260  A    between atoms: _630  and  _631
REMARK                            x       y       z     vdW  Elec       q    Type
REMARK                         _______ _______ _______ _____ _____    ______ ____
ROOT
ATOM      1  O   HOH     1      24.691  14.941   5.021  0.00  0.00    +0.000 OA
ENDROOT
TORSDOF 0
REMARK  Name = ../refined-set-2016/3b66/3b66_pocket.pdb
REMARK  260 active torsions:
REMARK  status: ('A' for Active; 'I' for Inactive)
REMARK    1  A    between atoms: _1  and  _3
REMARK    2  A    between atoms: _3  and  _4
REMARK    3  A    between atoms: _3  and  _6
REMARK    4  A    between atoms: _9  and  _11
REMARK    5  A    between atoms: _11  and  _12
REMARK    6  A    between atoms: _15  and  _17
REMARK    7  A    between atoms: _17  and  _18
REMARK    8  A    between atoms: _17  and  _20
REMARK    9  A    between atoms: _20  and  _21
REMARK   10  A    between atoms: _24  and  _26
REMARK   11  A    between atoms: _26  and  _27
REMARK   12  A    between atoms: _26  and  _29
REMARK   13  A    between atoms: _29  and  _30
REMARK   14  A    between atoms: _33  and  _35
REMARK   15  A    between atoms: _35  and  _36
REMARK   16  A    between atoms: _35  and  _38
REMARK   17  A    between atoms: _38  and  _39
REMARK   18  A    between atoms: _41  and  _43
REMARK   19  A    between atoms: _43  and  _44
REMARK   20  A    between atoms: _43  and  _46
REMARK   21  A    between atoms: _46  and  _47
REMARK   22  A    between atoms: _49  and  _51
REMARK   23  A    between atoms: _51  and  _52
REMARK   24  A    between atoms: _51  and  _54
REMARK   25  A    between atoms: _54  and  _55
REMARK   26  A    between atoms: _58  and  _60
REMARK   27  A    between atoms: _60  and  _61
REMARK   28  A    between atoms: _60  and  _63
REMARK   29  A    between atoms: _63  and  _64
REMARK   30  A    between atoms: _69  and  _71
REMARK   31  A    between atoms: _71  and  _72
REMARK   32  A    between atoms: _71  and  _74
REMARK   33  A    between atoms: _74  and  _75
REMARK   34  A    between atoms: _75  and  _76
REMARK   35  A    between atoms: _79  and  _81
REMARK   36  A    between atoms: _81  and  _82
REMARK   37  A    between atoms: _81  and  _84
REMARK   38  A    between atoms: _84  and  _85
REMARK   39  A    between atoms: _88  and  _90
REMARK   40  A    between atoms: _90  and  _91
REMARK   41  A    between atoms: _93  and  _95
REMARK   42  A    between atoms: _95  and  _96
REMARK   43  A    between atoms: _95  and  _98
REMARK   44  A    between atoms: _98  and  _99
REMARK   45  A    between atoms: _99  and  _100
REMARK   46  A    between atoms: _103  and  _105
REMARK   47  A    between atoms: _105  and  _106
REMARK   48  A    between atoms: _105  and  _108
REMARK   49  A    between atoms: _108  and  _109
REMARK   50  A    between atoms: _109  and  _110
REMARK   51  A    between atoms: _110  and  _111
REMARK   52  A    between atoms: _120  and  _122
REMARK   53  A    between atoms: _122  and  _123
REMARK   54  A    between atoms: _122  and  _125
REMARK   55  A    between atoms: _125  and  _126
REMARK   56  A    between atoms: _126  and  _127
REMARK   57  A    between atoms: _132  and  _134
REMARK   58  A    between atoms: _134  and  _135
REMARK   59  A    between atoms: _134  and  _137
REMARK   60  A    between atoms: _137  and  _138
REMARK   61  A    between atoms: _141  and  _143
REMARK   62  A    between atoms: _143  and  _144
REMARK   63  A    between atoms: _143  and  _146
REMARK   64  A    between atoms: _146  and  _147
REMARK   65  A    between atoms: _150  and  _152
REMARK   66  A    between atoms: _152  and  _153
REMARK   67  A    between atoms: _152  and  _155
REMARK   68  A    between atoms: _155  and  _156
REMARK   69  A    between atoms: _156  and  _157
REMARK   70  A    between atoms: _162  and  _164
REMARK   71  A    between atoms: _164  and  _165
REMARK   72  A    between atoms: _164  and  _167
REMARK   73  A    between atoms: _167  and  _168
REMARK   74  A    between atoms: _173  and  _174
REMARK   75  A    between atoms: _176  and  _178
REMARK   76  A    between atoms: _178  and  _179
REMARK   77  A    between atoms: _178  and  _181
REMARK   78  A    between atoms: _181  and  _182
REMARK   79  A    between atoms: _184  and  _186
REMARK   80  A    between atoms: _186  and  _187
REMARK   81  A    between atoms: _186  and  _189
REMARK   82  A    between atoms: _189  and  _190
REMARK   83  A    between atoms: _200  and  _202
REMARK   84  A    between atoms: _202  and  _203
REMARK   85  A    between atoms: _202  and  _205
REMARK   86  A    between atoms: _205  and  _206
REMARK   87  A    between atoms: _206  and  _207
REMARK   88  A    between atoms: _209  and  _211
REMARK   89  A    between atoms: _211  and  _212
REMARK   90  A    between atoms: _214  and  _216
REMARK   91  A    between atoms: _216  and  _217
REMARK   92  A    between atoms: _216  and  _219
REMARK   93  A    between atoms: _219  and  _220
REMARK   94  A    between atoms: _223  and  _225
REMARK   95  A    between atoms: _225  and  _226
REMARK   96  A    between atoms: _225  and  _228
REMARK   97  A    between atoms: _228  and  _229
REMARK   98  A    between atoms: _229  and  _230
REMARK   99  A    between atoms: _232  and  _234
REMARK  100  A    between atoms: _234  and  _235
REMARK  101  A    between atoms: _234  and  _237
REMARK  102  A    between atoms: _240  and  _242
REMARK  103  A    between atoms: _242  and  _243
REMARK  104  A    between atoms: _242  and  _245
REMARK  105  A    between atoms: _245  and  _246
REMARK  106  A    between atoms: _252  and  _254
REMARK  107  A    between atoms: _254  and  _255
REMARK  108  A    between atoms: _258  and  _260
REMARK  109  A    between atoms: _260  and  _261
REMARK  110  A    between atoms: _260  and  _263
REMARK  111  A    between atoms: _263  and  _264
REMARK  112  A    between atoms: _264  and  _265
REMARK  113  A    between atoms: _267  and  _269
REMARK  114  A    between atoms: _269  and  _270
REMARK  115  A    between atoms: _272  and  _274
REMARK  116  A    between atoms: _274  and  _275
REMARK  117  A    between atoms: _274  and  _277
REMARK  118  A    between atoms: _277  and  _278
REMARK  119  A    between atoms: _288  and  _290
REMARK  120  A    between atoms: _290  and  _291
REMARK  121  A    between atoms: _290  and  _293
REMARK  122  A    between atoms: _293  and  _294
REMARK  123  A    between atoms: _294  and  _295
REMARK  124  A    between atoms: _295  and  _296
REMARK  125  A    between atoms: _305  and  _307
REMARK  126  A    between atoms: _307  and  _308
REMARK  127  A    between atoms: _307  and  _310
REMARK  128  A    between atoms: _310  and  _311
REMARK  129  A    between atoms: _313  and  _315
REMARK  130  A    between atoms: _315  and  _316
REMARK  131  A    between atoms: _315  and  _318
REMARK  132  A    between atoms: _318  and  _319
REMARK  133  A    between atoms: _322  and  _324
REMARK  134  A    between atoms: _324  and  _325
REMARK  135  A    between atoms: _324  and  _327
REMARK  136  A    between atoms: _327  and  _328
REMARK  137  A    between atoms: _333  and  _334
REMARK  138  A    between atoms: _336  and  _338
REMARK  139  A    between atoms: _338  and  _339
REMARK  140  A    between atoms: _338  and  _341
REMARK  141  A    between atoms: _341  and  _342
REMARK  142  A    between atoms: _348  and  _350
REMARK  143  A    between atoms: _350  and  _351
REMARK  144  A    between atoms: _354  and  _356
REMARK  145  A    between atoms: _356  and  _357
REMARK  146  A    between atoms: _356  and  _359
REMARK  147  A    between atoms: _359  and  _360
REMARK  148  A    between atoms: _363  and  _365
REMARK  149  A    between atoms: _365  and  _366
REMARK  150  A    between atoms: _365  and  _368
REMARK  151  A    between atoms: _368  and  _369
REMARK  152  A    between atoms: _371  and  _373
REMARK  153  A    between atoms: _373  and  _374
REMARK  154  A    between atoms: _373  and  _376
REMARK  155  A    between atoms: _376  and  _377
REMARK  156  A    between atoms: _377  and  _378
REMARK  157  A    between atoms: _380  and  _382
REMARK  158  A    between atoms: _382  and  _383
REMARK  159  A    between atoms: _382  and  _385
REMARK  160  A    between atoms: _385  and  _386
REMARK  161  A    between atoms: _386  and  _387
REMARK  162  A    between atoms: _392  and  _394
REMARK  163  A    between atoms: _394  and  _395
REMARK  164  A    between atoms: _394  and  _397
REMARK  165  A    between atoms: _399  and  _401
REMARK  166  A    between atoms: _401  and  _402
REMARK  167  A    between atoms: _401  and  _404
REMARK  168  A    between atoms: _404  and  _405
REMARK  169  A    between atoms: _405  and  _406
REMARK  170  A    between atoms: _408  and  _410
REMARK  171  A    between atoms: _410  and  _411
REMARK  172  A    between atoms: _410  and  _413
REMARK  173  A    between atoms: _413  and  _414
REMARK  174  A    between atoms: _417  and  _419
REMARK  175  A    between atoms: _419  and  _420
REMARK  176  A    between atoms: _423  and  _425
REMARK  177  A    between atoms: _425  and  _426
REMARK  178  A    between atoms: _425  and  _428
REMARK  179  A    between atoms: _428  and  _429
REMARK  180  A    between atoms: _432  and  _434
REMARK  181  A    between atoms: _434  and  _435
REMARK  182  A    between atoms: _434  and  _437
REMARK  183  A    between atoms: _437  and  _438
REMARK  184  A    between atoms: _443  and  _445
REMARK  185  A    between atoms: _445  and  _446
REMARK  186  A    between atoms: _445  and  _448
REMARK  187  A    between atoms: _448  and  _449
REMARK  188  A    between atoms: _455  and  _457
REMARK  189  A    between atoms: _457  and  _458
REMARK  190  A    between atoms: _457  and  _460
REMARK  191  A    between atoms: _460  and  _461
REMARK  192  A    between atoms: _464  and  _466
REMARK  193  A    between atoms: _466  and  _467
REMARK  194  A    between atoms: _466  and  _469
REMARK  195  A    between atoms: _469  and  _470
REMARK  196  A    between atoms: _476  and  _478
REMARK  197  A    between atoms: _478  and  _479
REMARK  198  A    between atoms: _478  and  _481
REMARK  199  A    between atoms: _481  and  _482
REMARK  200  A    between atoms: _485  and  _487
REMARK  201  A    between atoms: _487  and  _488
REMARK  202  A    between atoms: _487  and  _490
REMARK  203  A    between atoms: _490  and  _491
REMARK  204  A    between atoms: _494  and  _496
REMARK  205  A    between atoms: _496  and  _497
REMARK  206  A    between atoms: _496  and  _499
REMARK  207  A    between atoms: _502  and  _504
REMARK  208  A    between atoms: _504  and  _505
REMARK  209  A    between atoms: _504  and  _507
REMARK  210  A    between atoms: _507  and  _508
REMARK  211  A    between atoms: _511  and  _513
REMARK  212  A    between atoms: _513  and  _514
REMARK  213  A    between atoms: _513  and  _516
REMARK  214  A    between atoms: _516  and  _517
REMARK  215  A    between atoms: _524  and  _525
REMARK  216  A    between atoms: _530  and  _532
REMARK  217  A    between atoms: _532  and  _533
REMARK  218  A    between atoms: _532  and  _535
REMARK  219  A    between atoms: _535  and  _536
REMARK  220  A    between atoms: _536  and  _537
REMARK  221  A    between atoms: _539  and  _541
REMARK  222  A    between atoms: _541  and  _542
REMARK  223  A    between atoms: _541  and  _544
REMARK  224  A    between atoms: _544  and  _545
REMARK  225  A    between atoms: _545  and  _546
REMARK  226  A    between atoms: _548  and  _550
REMARK  227  A    between atoms: _550  and  _551
REMARK  228  A    between atoms: _554  and  _556
REMARK  229  A    between atoms: _556  and  _557
REMARK  230  A    between atoms: _556  and  _559
REMARK  231  A    between atoms: _559  and  _560
REMARK  232  A    between atoms: _560  and  _561
REMARK  233  A    between atoms: _564  and  _566
REMARK  234  A    between atoms: _566  and  _567
REMARK  235  A    between atoms: _566  and  _569
REMARK  236  A    between atoms: _569  and  _570
REMARK  237  A    between atoms: _573  and  _575
REMARK  238  A    between atoms: _575  and  _576
REMARK  239  A    between atoms: _575  and  _578
REMARK  240  A    between atoms: _578  and  _579
REMARK  241  A    between atoms: _582  and  _584
REMARK  242  A    between atoms: _584  and  _585
REMARK  243  A    between atoms: _584  and  _587
REMARK  244  A    between atoms: _587  and  _588
REMARK  245  A    between atoms: _590  and  _592
REMARK  246  A    between atoms: _592  and  _593
REMARK  247  A    between atoms: _592  and  _595
REMARK  248  A    between atoms: _598  and  _600
REMARK  249  A    between atoms: _600  and  _601
REMARK  250  A    between atoms: _600  and  _603
REMARK  251  A    between atoms: _603  and  _604
REMARK  252  A    between atoms: _604  and  _605
REMARK  253  A    between atoms: _610  and  _612
REMARK  254  A    between atoms: _612  and  _613
REMARK  255  A    between atoms: _612  and  _615
REMARK  256  A    between atoms: _619  and  _620
REMARK  257  A    between atoms: _625  and  _627
REMARK  258  A    between atoms: _627  and  _628
REMARK  259  A    between atoms: _627  and  _630
REMARK  260  A    between atoms: _630  and  _631
REMARK                            x       y       z     vdW  Elec       q    Type
REMARK                         _______ _______ _______ _____ _____    ______ ____
ROOT
ATOM      1  O   HOH     1      20.722  14.322   5.319  0.00  0.00    +0.000 OA
ENDROOT
TORSDOF 0
REMARK  Name = ../refined-set-2016/3b66/3b66_pocket.pdb
REMARK  260 active torsions:
REMARK  status: ('A' for Active; 'I' for Inactive)
REMARK    1  A    between atoms: _1  and  _3
REMARK    2  A    between atoms: _3  and  _4
REMARK    3  A    between atoms: _3  and  _6
REMARK    4  A    between atoms: _9  and  _11
REMARK    5  A    between atoms: _11  and  _12
REMARK    6  A    between atoms: _15  and  _17
REMARK    7  A    between atoms: _17  and  _18
REMARK    8  A    between atoms: _17  and  _20
REMARK    9  A    between atoms: _20  and  _21
REMARK   10  A    between atoms: _24  and  _26
REMARK   11  A    between atoms: _26  and  _27
REMARK   12  A    between atoms: _26  and  _29
REMARK   13  A    between atoms: _29  and  _30
REMARK   14  A    between atoms: _33  and  _35
REMARK   15  A    between atoms: _35  and  _36
REMARK   16  A    between atoms: _35  and  _38
REMARK   17  A    between atoms: _38  and  _39
REMARK   18  A    between atoms: _41  and  _43
REMARK   19  A    between atoms: _43  and  _44
REMARK   20  A    between atoms: _43  and  _46
REMARK   21  A    between atoms: _46  and  _47
REMARK   22  A    between atoms: _49  and  _51
REMARK   23  A    between atoms: _51  and  _52
REMARK   24  A    between atoms: _51  and  _54
REMARK   25  A    between atoms: _54  and  _55
REMARK   26  A    between atoms: _58  and  _60
REMARK   27  A    between atoms: _60  and  _61
REMARK   28  A    between atoms: _60  and  _63
REMARK   29  A    between atoms: _63  and  _64
REMARK   30  A    between atoms: _69  and  _71
REMARK   31  A    between atoms: _71  and  _72
REMARK   32  A    between atoms: _71  and  _74
REMARK   33  A    between atoms: _74  and  _75
REMARK   34  A    between atoms: _75  and  _76
REMARK   35  A    between atoms: _79  and  _81
REMARK   36  A    between atoms: _81  and  _82
REMARK   37  A    between atoms: _81  and  _84
REMARK   38  A    between atoms: _84  and  _85
REMARK   39  A    between atoms: _88  and  _90
REMARK   40  A    between atoms: _90  and  _91
REMARK   41  A    between atoms: _93  and  _95
REMARK   42  A    between atoms: _95  and  _96
REMARK   43  A    between atoms: _95  and  _98
REMARK   44  A    between atoms: _98  and  _99
REMARK   45  A    between atoms: _99  and  _100
REMARK   46  A    between atoms: _103  and  _105
REMARK   47  A    between atoms: _105  and  _106
REMARK   48  A    between atoms: _105  and  _108
REMARK   49  A    between atoms: _108  and  _109
REMARK   50  A    between atoms: _109  and  _110
REMARK   51  A    between atoms: _110  and  _111
REMARK   52  A    between atoms: _120  and  _122
REMARK   53  A    between atoms: _122  and  _123
REMARK   54  A    between atoms: _122  and  _125
REMARK   55  A    between atoms: _125  and  _126
REMARK   56  A    between atoms: _126  and  _127
REMARK   57  A    between atoms: _132  and  _134
REMARK   58  A    between atoms: _134  and  _135
REMARK   59  A    between atoms: _134  and  _137
REMARK   60  A    between atoms: _137  and  _138
REMARK   61  A    between atoms: _141  and  _143
REMARK   62  A    between atoms: _143  and  _144
REMARK   63  A    between atoms: _143  and  _146
REMARK   64  A    between atoms: _146  and  _147
REMARK   65  A    between atoms: _150  and  _152
REMARK   66  A    between atoms: _152  and  _153
REMARK   67  A    between atoms: _152  and  _155
REMARK   68  A    between atoms: _155  and  _156
REMARK   69  A    between atoms: _156  and  _157
REMARK   70  A    between atoms: _162  and  _164
REMARK   71  A    between atoms: _164  and  _165
REMARK   72  A    between atoms: _164  and  _167
REMARK   73  A    between atoms: _167  and  _168
REMARK   74  A    between atoms: _173  and  _174
REMARK   75  A    between atoms: _176  and  _178
REMARK   76  A    between atoms: _178  and  _179
REMARK   77  A    between atoms: _178  and  _181
REMARK   78  A    between atoms: _181  and  _182
REMARK   79  A    between atoms: _184  and  _186
REMARK   80  A    between atoms: _186  and  _187
REMARK   81  A    between atoms: _186  and  _189
REMARK   82  A    between atoms: _189  and  _190
REMARK   83  A    between atoms: _200  and  _202
REMARK   84  A    between atoms: _202  and  _203
REMARK   85  A    between atoms: _202  and  _205
REMARK   86  A    between atoms: _205  and  _206
REMARK   87  A    between atoms: _206  and  _207
REMARK   88  A    between atoms: _209  and  _211
REMARK   89  A    between atoms: _211  and  _212
REMARK   90  A    between atoms: _214  and  _216
REMARK   91  A    between atoms: _216  and  _217
REMARK   92  A    between atoms: _216  and  _219
REMARK   93  A    between atoms: _219  and  _220
REMARK   94  A    between atoms: _223  and  _225
REMARK   95  A    between atoms: _225  and  _226
REMARK   96  A    between atoms: _225  and  _228
REMARK   97  A    between atoms: _228  and  _229
REMARK   98  A    between atoms: _229  and  _230
REMARK   99  A    between atoms: _232  and  _234
REMARK  100  A    between atoms: _234  and  _235
REMARK  101  A    between atoms: _234  and  _237
REMARK  102  A    between atoms: _240  and  _242
REMARK  103  A    between atoms: _242  and  _243
REMARK  104  A    between atoms: _242  and  _245
REMARK  105  A    between atoms: _245  and  _246
REMARK  106  A    between atoms: _252  and  _254
REMARK  107  A    between atoms: _254  and  _255
REMARK  108  A    between atoms: _258  and  _260
REMARK  109  A    between atoms: _260  and  _261
REMARK  110  A    between atoms: _260  and  _263
REMARK  111  A    between atoms: _263  and  _264
REMARK  112  A    between atoms: _264  and  _265
REMARK  113  A    between atoms: _267  and  _269
REMARK  114  A    between atoms: _269  and  _270
REMARK  115  A    between atoms: _272  and  _274
REMARK  116  A    between atoms: _274  and  _275
REMARK  117  A    between atoms: _274  and  _277
REMARK  118  A    between atoms: _277  and  _278
REMARK  119  A    between atoms: _288  and  _290
REMARK  120  A    between atoms: _290  and  _291
REMARK  121  A    between atoms: _290  and  _293
REMARK  122  A    between atoms: _293  and  _294
REMARK  123  A    between atoms: _294  and  _295
REMARK  124  A    between atoms: _295  and  _296
REMARK  125  A    between atoms: _305  and  _307
REMARK  126  A    between atoms: _307  and  _308
REMARK  127  A    between atoms: _307  and  _310
REMARK  128  A    between atoms: _310  and  _311
REMARK  129  A    between atoms: _313  and  _315
REMARK  130  A    between atoms: _315  and  _316
REMARK  131  A    between atoms: _315  and  _318
REMARK  132  A    between atoms: _318  and  _319
REMARK  133  A    between atoms: _322  and  _324
REMARK  134  A    between atoms: _324  and  _325
REMARK  135  A    between atoms: _324  and  _327
REMARK  136  A    between atoms: _327  and  _328
REMARK  137  A    between atoms: _333  and  _334
REMARK  138  A    between atoms: _336  and  _338
REMARK  139  A    between atoms: _338  and  _339
REMARK  140  A    between atoms: _338  and  _341
REMARK  141  A    between atoms: _341  and  _342
REMARK  142  A    between atoms: _348  and  _350
REMARK  143  A    between atoms: _350  and  _351
REMARK  144  A    between atoms: _354  and  _356
REMARK  145  A    between atoms: _356  and  _357
REMARK  146  A    between atoms: _356  and  _359
REMARK  147  A    between atoms: _359  and  _360
REMARK  148  A    between atoms: _363  and  _365
REMARK  149  A    between atoms: _365  and  _366
REMARK  150  A    between atoms: _365  and  _368
REMARK  151  A    between atoms: _368  and  _369
REMARK  152  A    between atoms: _371  and  _373
REMARK  153  A    between atoms: _373  and  _374
REMARK  154  A    between atoms: _373  and  _376
REMARK  155  A    between atoms: _376  and  _377
REMARK  156  A    between atoms: _377  and  _378
REMARK  157  A    between atoms: _380  and  _382
REMARK  158  A    between atoms: _382  and  _383
REMARK  159  A    between atoms: _382  and  _385
REMARK  160  A    between atoms: _385  and  _386
REMARK  161  A    between atoms: _386  and  _387
REMARK  162  A    between atoms: _392  and  _394
REMARK  163  A    between atoms: _394  and  _395
REMARK  164  A    between atoms: _394  and  _397
REMARK  165  A    between atoms: _399  and  _401
REMARK  166  A    between atoms: _401  and  _402
REMARK  167  A    between atoms: _401  and  _404
REMARK  168  A    between atoms: _404  and  _405
REMARK  169  A    between atoms: _405  and  _406
REMARK  170  A    between atoms: _408  and  _410
REMARK  171  A    between atoms: _410  and  _411
REMARK  172  A    between atoms: _410  and  _413
REMARK  173  A    between atoms: _413  and  _414
REMARK  174  A    between atoms: _417  and  _419
REMARK  175  A    between atoms: _419  and  _420
REMARK  176  A    between atoms: _423  and  _425
REMARK  177  A    between atoms: _425  and  _426
REMARK  178  A    between atoms: _425  and  _428
REMARK  179  A    between atoms: _428  and  _429
REMARK  180  A    between atoms: _432  and  _434
REMARK  181  A    between atoms: _434  and  _435
REMARK  182  A    between atoms: _434  and  _437
REMARK  183  A    between atoms: _437  and  _438
REMARK  184  A    between atoms: _443  and  _445
REMARK  185  A    between atoms: _445  and  _446
REMARK  186  A    between atoms: _445  and  _448
REMARK  187  A    between atoms: _448  and  _449
REMARK  188  A    between atoms: _455  and  _457
REMARK  189  A    between atoms: _457  and  _458
REMARK  190  A    between atoms: _457  and  _460
REMARK  191  A    between atoms: _460  and  _461
REMARK  192  A    between atoms: _464  and  _466
REMARK  193  A    between atoms: _466  and  _467
REMARK  194  A    between atoms: _466  and  _469
REMARK  195  A    between atoms: _469  and  _470
REMARK  196  A    between atoms: _476  and  _478
REMARK  197  A    between atoms: _478  and  _479
REMARK  198  A    between atoms: _478  and  _481
REMARK  199  A    between atoms: _481  and  _482
REMARK  200  A    between atoms: _485  and  _487
REMARK  201  A    between atoms: _487  and  _488
REMARK  202  A    between atoms: _487  and  _490
REMARK  203  A    between atoms: _490  and  _491
REMARK  204  A    between atoms: _494  and  _496
REMARK  205  A    between atoms: _496  and  _497
REMARK  206  A    between atoms: _496  and  _499
REMARK  207  A    between atoms: _502  and  _504
REMARK  208  A    between atoms: _504  and  _505
REMARK  209  A    between atoms: _504  and  _507
REMARK  210  A    between atoms: _507  and  _508
REMARK  211  A    between atoms: _511  and  _513
REMARK  212  A    between atoms: _513  and  _514
REMARK  213  A    between atoms: _513  and  _516
REMARK  214  A    between atoms: _516  and  _517
REMARK  215  A    between atoms: _524  and  _525
REMARK  216  A    between atoms: _530  and  _532
REMARK  217  A    between atoms: _532  and  _533
REMARK  218  A    between atoms: _532  and  _535
REMARK  219  A    between atoms: _535  and  _536
REMARK  220  A    between atoms: _536  and  _537
REMARK  221  A    between atoms: _539  and  _541
REMARK  222  A    between atoms: _541  and  _542
REMARK  223  A    between atoms: _541  and  _544
REMARK  224  A    between atoms: _544  and  _545
REMARK  225  A    between atoms: _545  and  _546
REMARK  226  A    between atoms: _548  and  _550
REMARK  227  A    between atoms: _550  and  _551
REMARK  228  A    between atoms: _554  and  _556
REMARK  229  A    between atoms: _556  and  _557
REMARK  230  A    between atoms: _556  and  _559
REMARK  231  A    between atoms: _559  and  _560
REMARK  232  A    between atoms: _560  and  _561
REMARK  233  A    between atoms: _564  and  _566
REMARK  234  A    between atoms: _566  and  _567
REMARK  235  A    between atoms: _566  and  _569
REMARK  236  A    between atoms: _569  and  _570
REMARK  237  A    between atoms: _573  and  _575
REMARK  238  A    between atoms: _575  and  _576
REMARK  239  A    between atoms: _575  and  _578
REMARK  240  A    between atoms: _578  and  _579
REMARK  241  A    between atoms: _582  and  _584
REMARK  242  A    between atoms: _584  and  _585
REMARK  243  A    between atoms: _584  and  _587
REMARK  244  A    between atoms: _587  and  _588
REMARK  245  A    between atoms: _590  and  _592
REMARK  246  A    between atoms: _592  and  _593
REMARK  247  A    between atoms: _592  and  _595
REMARK  248  A    between atoms: _598  and  _600
REMARK  249  A    between atoms: _600  and  _601
REMARK  250  A    between atoms: _600  and  _603
REMARK  251  A    between atoms: _603  and  _604
REMARK  252  A    between atoms: _604  and  _605
REMARK  253  A    between atoms: _610  and  _612
REMARK  254  A    between atoms: _612  and  _613
REMARK  255  A    between atoms: _612  and  _615
REMARK  256  A    between atoms: _619  and  _620
REMARK  257  A    between atoms: _625  and  _627
REMARK  258  A    between atoms: _627  and  _628
REMARK  259  A    between atoms: _627  and  _630
REMARK  260  A    between atoms: _630  and  _631
REMARK                            x       y       z     vdW  Elec       q    Type
REMARK                         _______ _______ _______ _____ _____    ______ ____
ROOT
ATOM      1  O   HOH     1      24.149  12.840   6.921  0.00  0.00    +0.000 OA
ENDROOT
TORSDOF 0
