REMARK  Name = ../refined-set-2016/4zhl/4zhl_pocket.pdb
REMARK  247 active torsions:
REMARK  status: ('A' for Active; 'I' for Inactive)
REMARK    1  A    between atoms: _1  and  _5
REMARK    2  A    between atoms: _5  and  _6
REMARK    3  A    between atoms: _5  and  _8
REMARK    4  A    between atoms: _8  and  _9
REMARK    5  A    between atoms: _12  and  _14
REMARK    6  A    between atoms: _14  and  _15
REMARK    7  A    between atoms: _14  and  _17
REMARK    8  A    between atoms: _17  and  _18
REMARK    9  A    between atoms: _21  and  _23
REMARK   10  A    between atoms: _23  and  _24
REMARK   11  A    between atoms: _23  and  _26
REMARK   12  A    between atoms: _26  and  _27
REMARK   13  A    between atoms: _30  and  _32
REMARK   14  A    between atoms: _32  and  _33
REMARK   15  A    between atoms: _32  and  _35
REMARK   16  A    between atoms: _35  and  _36
REMARK   17  A    between atoms: _36  and  _37
REMARK   18  A    between atoms: _37  and  _38
REMARK   19  A    between atoms: _47  and  _49
REMARK   20  A    between atoms: _49  and  _50
REMARK   21  A    between atoms: _49  and  _52
REMARK   22  A    between atoms: _52  and  _53
REMARK   23  A    between atoms: _56  and  _58
REMARK   24  A    between atoms: _58  and  _59
REMARK   25  A    between atoms: _58  and  _61
REMARK   26  A    between atoms: _61  and  _62
REMARK   27  A    between atoms: _67  and  _68
REMARK   28  A    between atoms: _70  and  _72
REMARK   29  A    between atoms: _72  and  _73
REMARK   30  A    between atoms: _72  and  _75
REMARK   31  A    between atoms: _78  and  _80
REMARK   32  A    between atoms: _80  and  _81
REMARK   33  A    between atoms: _80  and  _83
REMARK   34  A    between atoms: _83  and  _84
REMARK   35  A    between atoms: _84  and  _122
REMARK   36  A    between atoms: _85  and  _87
REMARK   37  A    between atoms: _87  and  _88
REMARK   38  A    between atoms: _90  and  _92
REMARK   39  A    between atoms: _92  and  _93
REMARK   40  A    between atoms: _96  and  _98
REMARK   41  A    between atoms: _98  and  _99
REMARK   42  A    between atoms: _98  and  _101
REMARK   43  A    between atoms: _101  and  _102
REMARK   44  A    between atoms: _105  and  _107
REMARK   45  A    between atoms: _107  and  _108
REMARK   46  A    between atoms: _107  and  _110
REMARK   47  A    between atoms: _110  and  _111
REMARK   48  A    between atoms: _116  and  _118
REMARK   49  A    between atoms: _118  and  _119
REMARK   50  A    between atoms: _118  and  _121
REMARK   51  A    between atoms: _121  and  _122
REMARK   52  A    between atoms: _123  and  _125
REMARK   53  A    between atoms: _125  and  _126
REMARK   54  A    between atoms: _125  and  _128
REMARK   55  A    between atoms: _128  and  _129
REMARK   56  A    between atoms: _135  and  _137
REMARK   57  A    between atoms: _137  and  _138
REMARK   58  A    between atoms: _137  and  _140
REMARK   59  A    between atoms: _140  and  _141
REMARK   60  A    between atoms: _144  and  _146
REMARK   61  A    between atoms: _146  and  _147
REMARK   62  A    between atoms: _146  and  _149
REMARK   63  A    between atoms: _149  and  _150
REMARK   64  A    between atoms: _153  and  _155
REMARK   65  A    between atoms: _155  and  _156
REMARK   66  A    between atoms: _155  and  _158
REMARK   67  A    between atoms: _158  and  _159
REMARK   68  A    between atoms: _164  and  _165
REMARK   69  A    between atoms: _167  and  _169
REMARK   70  A    between atoms: _169  and  _170
REMARK   71  A    between atoms: _169  and  _172
REMARK   72  A    between atoms: _172  and  _173
REMARK   73  A    between atoms: _178  and  _179
REMARK   74  A    between atoms: _181  and  _183
REMARK   75  A    between atoms: _183  and  _184
REMARK   76  A    between atoms: _183  and  _186
REMARK   77  A    between atoms: _186  and  _187
REMARK   78  A    between atoms: _190  and  _192
REMARK   79  A    between atoms: _192  and  _193
REMARK   80  A    between atoms: _192  and  _195
REMARK   81  A    between atoms: _195  and  _196
REMARK   82  A    between atoms: _201  and  _202
REMARK   83  A    between atoms: _204  and  _206
REMARK   84  A    between atoms: _206  and  _207
REMARK   85  A    between atoms: _206  and  _209
REMARK   86  A    between atoms: _209  and  _210
REMARK   87  A    between atoms: _212  and  _214
REMARK   88  A    between atoms: _214  and  _215
REMARK   89  A    between atoms: _218  and  _220
REMARK   90  A    between atoms: _220  and  _221
REMARK   91  A    between atoms: _220  and  _223
REMARK   92  A    between atoms: _223  and  _224
REMARK   93  A    between atoms: _227  and  _229
REMARK   94  A    between atoms: _229  and  _230
REMARK   95  A    between atoms: _229  and  _232
REMARK   96  A    between atoms: _232  and  _233
REMARK   97  A    between atoms: _236  and  _238
REMARK   98  A    between atoms: _238  and  _239
REMARK   99  A    between atoms: _238  and  _241
REMARK  100  A    between atoms: _241  and  _242
REMARK  101  A    between atoms: _245  and  _247
REMARK  102  A    between atoms: _247  and  _248
REMARK  103  A    between atoms: _251  and  _253
REMARK  104  A    between atoms: _253  and  _254
REMARK  105  A    between atoms: _253  and  _256
REMARK  106  A    between atoms: _256  and  _257
REMARK  107  A    between atoms: _262  and  _263
REMARK  108  A    between atoms: _265  and  _267
REMARK  109  A    between atoms: _267  and  _268
REMARK  110  A    between atoms: _267  and  _270
REMARK  111  A    between atoms: _270  and  _271
REMARK  112  A    between atoms: _276  and  _278
REMARK  113  A    between atoms: _278  and  _279
REMARK  114  A    between atoms: _278  and  _281
REMARK  115  A    between atoms: _281  and  _282
REMARK  116  A    between atoms: _285  and  _287
REMARK  117  A    between atoms: _287  and  _288
REMARK  118  A    between atoms: _287  and  _290
REMARK  119  A    between atoms: _290  and  _291
REMARK  120  A    between atoms: _294  and  _296
REMARK  121  A    between atoms: _296  and  _297
REMARK  122  A    between atoms: _296  and  _299
REMARK  123  A    between atoms: _299  and  _300
REMARK  124  A    between atoms: _306  and  _308
REMARK  125  A    between atoms: _308  and  _309
REMARK  126  A    between atoms: _311  and  _313
REMARK  127  A    between atoms: _313  and  _314
REMARK  128  A    between atoms: _313  and  _316
REMARK  129  A    between atoms: _316  and  _317
REMARK  130  A    between atoms: _317  and  _318
REMARK  131  A    between atoms: _318  and  _319
REMARK  132  A    between atoms: _319  and  _320
REMARK  133  A    between atoms: _324  and  _326
REMARK  134  A    between atoms: _326  and  _327
REMARK  135  A    between atoms: _326  and  _329
REMARK  136  A    between atoms: _329  and  _330
REMARK  137  A    between atoms: _332  and  _334
REMARK  138  A    between atoms: _334  and  _335
REMARK  139  A    between atoms: _334  and  _337
REMARK  140  A    between atoms: _337  and  _338
REMARK  141  A    between atoms: _343  and  _344
REMARK  142  A    between atoms: _346  and  _348
REMARK  143  A    between atoms: _348  and  _349
REMARK  144  A    between atoms: _348  and  _351
REMARK  145  A    between atoms: _354  and  _356
REMARK  146  A    between atoms: _356  and  _357
REMARK  147  A    between atoms: _356  and  _359
REMARK  148  A    between atoms: _359  and  _360
REMARK  149  A    between atoms: _365  and  _366
REMARK  150  A    between atoms: _368  and  _370
REMARK  151  A    between atoms: _370  and  _371
REMARK  152  A    between atoms: _370  and  _373
REMARK  153  A    between atoms: _373  and  _374
REMARK  154  A    between atoms: _379  and  _380
REMARK  155  A    between atoms: _382  and  _384
REMARK  156  A    between atoms: _384  and  _385
REMARK  157  A    between atoms: _384  and  _387
REMARK  158  A    between atoms: _387  and  _388
REMARK  159  A    between atoms: _388  and  _389
REMARK  160  A    between atoms: _392  and  _394
REMARK  161  A    between atoms: _394  and  _395
REMARK  162  A    between atoms: _398  and  _400
REMARK  163  A    between atoms: _400  and  _401
REMARK  164  A    between atoms: _404  and  _406
REMARK  165  A    between atoms: _406  and  _407
REMARK  166  A    between atoms: _406  and  _409
REMARK  167  A    between atoms: _409  and  _410
REMARK  168  A    between atoms: _413  and  _415
REMARK  169  A    between atoms: _415  and  _416
REMARK  170  A    between atoms: _415  and  _418
REMARK  171  A    between atoms: _418  and  _419
REMARK  172  A    between atoms: _422  and  _424
REMARK  173  A    between atoms: _424  and  _425
REMARK  174  A    between atoms: _424  and  _427
REMARK  175  A    between atoms: _427  and  _428
REMARK  176  A    between atoms: _430  and  _432
REMARK  177  A    between atoms: _432  and  _433
REMARK  178  A    between atoms: _432  and  _435
REMARK  179  A    between atoms: _435  and  _436
REMARK  180  A    between atoms: _436  and  _546
REMARK  181  A    between atoms: _437  and  _439
REMARK  182  A    between atoms: _439  and  _440
REMARK  183  A    between atoms: _439  and  _442
REMARK  184  A    between atoms: _442  and  _443
REMARK  185  A    between atoms: _443  and  _444
REMARK  186  A    between atoms: _449  and  _451
REMARK  187  A    between atoms: _451  and  _452
REMARK  188  A    between atoms: _454  and  _456
REMARK  189  A    between atoms: _456  and  _457
REMARK  190  A    between atoms: _456  and  _459
REMARK  191  A    between atoms: _459  and  _460
REMARK  192  A    between atoms: _463  and  _465
REMARK  193  A    between atoms: _465  and  _466
REMARK  194  A    between atoms: _465  and  _468
REMARK  195  A    between atoms: _468  and  _469
REMARK  196  A    between atoms: _471  and  _473
REMARK  197  A    between atoms: _473  and  _474
REMARK  198  A    between atoms: _476  and  _478
REMARK  199  A    between atoms: _478  and  _479
REMARK  200  A    between atoms: _481  and  _483
REMARK  201  A    between atoms: _483  and  _484
REMARK  202  A    between atoms: _483  and  _486
REMARK  203  A    between atoms: _489  and  _491
REMARK  204  A    between atoms: _491  and  _492
REMARK  205  A    between atoms: _491  and  _494
REMARK  206  A    between atoms: _494  and  _495
REMARK  207  A    between atoms: _497  and  _499
REMARK  208  A    between atoms: _499  and  _500
REMARK  209  A    between atoms: _499  and  _502
REMARK  210  A    between atoms: _502  and  _503
REMARK  211  A    between atoms: _513  and  _515
REMARK  212  A    between atoms: _515  and  _516
REMARK  213  A    between atoms: _518  and  _520
REMARK  214  A    between atoms: _520  and  _521
REMARK  215  A    between atoms: _520  and  _523
REMARK  216  A    between atoms: _523  and  _524
REMARK  217  A    between atoms: _524  and  _525
REMARK  218  A    between atoms: _525  and  _526
REMARK  219  A    between atoms: _535  and  _537
REMARK  220  A    between atoms: _537  and  _538
REMARK  221  A    between atoms: _540  and  _542
REMARK  222  A    between atoms: _542  and  _543
REMARK  223  A    between atoms: _542  and  _545
REMARK  224  A    between atoms: _547  and  _549
REMARK  225  A    between atoms: _549  and  _550
REMARK  226  A    between atoms: _553  and  _555
REMARK  227  A    between atoms: _555  and  _556
REMARK  228  A    between atoms: _555  and  _558
REMARK  229  A    between atoms: _558  and  _559
REMARK  230  A    between atoms: _562  and  _564
REMARK  231  A    between atoms: _564  and  _565
REMARK  232  A    between atoms: _564  and  _567
REMARK  233  A    between atoms: _567  and  _568
REMARK  234  A    between atoms: _568  and  _569
REMARK  235  A    between atoms: _569  and  _570
REMARK  236  A    between atoms: _570  and  _571
REMARK  237  A    between atoms: _576  and  _577
REMARK  238  A    between atoms: _582  and  _584
REMARK  239  A    between atoms: _584  and  _585
REMARK  240  A    between atoms: _587  and  _589
REMARK  241  A    between atoms: _589  and  _590
REMARK  242  A    between atoms: _589  and  _592
REMARK  243  A    between atoms: _595  and  _597
REMARK  244  A    between atoms: _597  and  _598
REMARK  245  A    between atoms: _597  and  _600
REMARK  246  A    between atoms: _600  and  _601
REMARK  247  A    between atoms: _606  and  _607
REMARK                            x       y       z     vdW  Elec       q    Type
REMARK                         _______ _______ _______ _____ _____    ______ ____
ROOT
ATOM      1  C   ILE A   1      -9.212 -36.712 -24.582  0.00  0.00    +0.202 C 
ATOM      2  O   ILE A   1     -10.327 -36.280 -24.894  0.00  0.00    -0.277 OA
ATOM      3  N   ILE A   2      -8.553 -37.638 -25.278  0.00  0.00    -0.301 N 
ATOM      4  H   ILE A   2      -7.613 -37.937 -24.947  0.00  0.00    +0.150 HD
ENDROOT
BRANCH   1   5
ATOM      5  CA  ILE A   1      -8.506 -36.232 -23.305  0.00  0.00    +0.013 C 
BRANCH   5   6
ATOM      6  N   ILE A   1      -8.205 -34.800 -23.343  0.00  0.00    +0.387 N 
ATOM      7  H1  ILE A   1      -7.729 -34.523 -22.460  0.00  0.00    -0.089 HD
ATOM      8  H2  ILE A   1      -9.090 -34.263 -23.444  0.00  0.00    -0.089 HD
ATOM      9  H3  ILE A   1      -7.582 -34.599 -24.151  0.00  0.00    -0.089 HD
ENDBRANCH   5   6
BRANCH   5  10
ATOM     10  CB  ILE A   1      -9.382 -36.604 -22.100  0.00  0.00    -0.011 C 
ATOM     11  CG2 ILE A   1      -9.684 -38.091 -22.115  0.00  0.00    -0.002 C 
BRANCH  10  12
ATOM     12  CG1 ILE A   1      -8.712 -36.199 -20.760  0.00  0.00    -0.002 C 
ATOM     13  CD1 ILE A   1      -7.457 -36.945 -20.455  0.00  0.00    -0.000 C 
ENDBRANCH  10  12
ENDBRANCH   5  10
ENDBRANCH   1   5
BRANCH   3  14
ATOM     14  CA  ILE A   2      -9.098 -38.250 -26.487  0.00  0.00    +0.137 C 
BRANCH  14  15
ATOM     15  C   ILE A   2      -9.914 -39.457 -26.064  0.00  0.00    +0.227 C 
ATOM     16  O   ILE A   2      -9.431 -40.304 -25.296  0.00  0.00    -0.286 OA
ENDBRANCH  14  15
BRANCH  14  17
ATOM     17  CB  ILE A   2      -7.999 -38.756 -27.451  0.00  0.00    +0.026 C 
ATOM     18  CG2 ILE A   2      -8.614 -39.138 -28.799  0.00  0.00    +0.002 C 
BRANCH  17  19
ATOM     19  CG1 ILE A   2      -6.902 -37.721 -27.644  0.00  0.00    +0.002 C 
ATOM     20  CD1 ILE A   2      -7.364 -36.417 -28.249  0.00  0.00    +0.000 C 
ENDBRANCH  17  19
ENDBRANCH  14  17
ENDBRANCH   3  14
TORSDOF 8
REMARK  Name = ../refined-set-2016/4zhl/4zhl_pocket.pdb
REMARK  247 active torsions:
REMARK  status: ('A' for Active; 'I' for Inactive)
REMARK    1  A    between atoms: _1  and  _5
REMARK    2  A    between atoms: _5  and  _6
REMARK    3  A    between atoms: _5  and  _8
REMARK    4  A    between atoms: _8  and  _9
REMARK    5  A    between atoms: _12  and  _14
REMARK    6  A    between atoms: _14  and  _15
REMARK    7  A    between atoms: _14  and  _17
REMARK    8  A    between atoms: _17  and  _18
REMARK    9  A    between atoms: _21  and  _23
REMARK   10  A    between atoms: _23  and  _24
REMARK   11  A    between atoms: _23  and  _26
REMARK   12  A    between atoms: _26  and  _27
REMARK   13  A    between atoms: _30  and  _32
REMARK   14  A    between atoms: _32  and  _33
REMARK   15  A    between atoms: _32  and  _35
REMARK   16  A    between atoms: _35  and  _36
REMARK   17  A    between atoms: _36  and  _37
REMARK   18  A    between atoms: _37  and  _38
REMARK   19  A    between atoms: _47  and  _49
REMARK   20  A    between atoms: _49  and  _50
REMARK   21  A    between atoms: _49  and  _52
REMARK   22  A    between atoms: _52  and  _53
REMARK   23  A    between atoms: _56  and  _58
REMARK   24  A    between atoms: _58  and  _59
REMARK   25  A    between atoms: _58  and  _61
REMARK   26  A    between atoms: _61  and  _62
REMARK   27  A    between atoms: _67  and  _68
REMARK   28  A    between atoms: _70  and  _72
REMARK   29  A    between atoms: _72  and  _73
REMARK   30  A    between atoms: _72  and  _75
REMARK   31  A    between atoms: _78  and  _80
REMARK   32  A    between atoms: _80  and  _81
REMARK   33  A    between atoms: _80  and  _83
REMARK   34  A    between atoms: _83  and  _84
REMARK   35  A    between atoms: _84  and  _122
REMARK   36  A    between atoms: _85  and  _87
REMARK   37  A    between atoms: _87  and  _88
REMARK   38  A    between atoms: _90  and  _92
REMARK   39  A    between atoms: _92  and  _93
REMARK   40  A    between atoms: _96  and  _98
REMARK   41  A    between atoms: _98  and  _99
REMARK   42  A    between atoms: _98  and  _101
REMARK   43  A    between atoms: _101  and  _102
REMARK   44  A    between atoms: _105  and  _107
REMARK   45  A    between atoms: _107  and  _108
REMARK   46  A    between atoms: _107  and  _110
REMARK   47  A    between atoms: _110  and  _111
REMARK   48  A    between atoms: _116  and  _118
REMARK   49  A    between atoms: _118  and  _119
REMARK   50  A    between atoms: _118  and  _121
REMARK   51  A    between atoms: _121  and  _122
REMARK   52  A    between atoms: _123  and  _125
REMARK   53  A    between atoms: _125  and  _126
REMARK   54  A    between atoms: _125  and  _128
REMARK   55  A    between atoms: _128  and  _129
REMARK   56  A    between atoms: _135  and  _137
REMARK   57  A    between atoms: _137  and  _138
REMARK   58  A    between atoms: _137  and  _140
REMARK   59  A    between atoms: _140  and  _141
REMARK   60  A    between atoms: _144  and  _146
REMARK   61  A    between atoms: _146  and  _147
REMARK   62  A    between atoms: _146  and  _149
REMARK   63  A    between atoms: _149  and  _150
REMARK   64  A    between atoms: _153  and  _155
REMARK   65  A    between atoms: _155  and  _156
REMARK   66  A    between atoms: _155  and  _158
REMARK   67  A    between atoms: _158  and  _159
REMARK   68  A    between atoms: _164  and  _165
REMARK   69  A    between atoms: _167  and  _169
REMARK   70  A    between atoms: _169  and  _170
REMARK   71  A    between atoms: _169  and  _172
REMARK   72  A    between atoms: _172  and  _173
REMARK   73  A    between atoms: _178  and  _179
REMARK   74  A    between atoms: _181  and  _183
REMARK   75  A    between atoms: _183  and  _184
REMARK   76  A    between atoms: _183  and  _186
REMARK   77  A    between atoms: _186  and  _187
REMARK   78  A    between atoms: _190  and  _192
REMARK   79  A    between atoms: _192  and  _193
REMARK   80  A    between atoms: _192  and  _195
REMARK   81  A    between atoms: _195  and  _196
REMARK   82  A    between atoms: _201  and  _202
REMARK   83  A    between atoms: _204  and  _206
REMARK   84  A    between atoms: _206  and  _207
REMARK   85  A    between atoms: _206  and  _209
REMARK   86  A    between atoms: _209  and  _210
REMARK   87  A    between atoms: _212  and  _214
REMARK   88  A    between atoms: _214  and  _215
REMARK   89  A    between atoms: _218  and  _220
REMARK   90  A    between atoms: _220  and  _221
REMARK   91  A    between atoms: _220  and  _223
REMARK   92  A    between atoms: _223  and  _224
REMARK   93  A    between atoms: _227  and  _229
REMARK   94  A    between atoms: _229  and  _230
REMARK   95  A    between atoms: _229  and  _232
REMARK   96  A    between atoms: _232  and  _233
REMARK   97  A    between atoms: _236  and  _238
REMARK   98  A    between atoms: _238  and  _239
REMARK   99  A    between atoms: _238  and  _241
REMARK  100  A    between atoms: _241  and  _242
REMARK  101  A    between atoms: _245  and  _247
REMARK  102  A    between atoms: _247  and  _248
REMARK  103  A    between atoms: _251  and  _253
REMARK  104  A    between atoms: _253  and  _254
REMARK  105  A    between atoms: _253  and  _256
REMARK  106  A    between atoms: _256  and  _257
REMARK  107  A    between atoms: _262  and  _263
REMARK  108  A    between atoms: _265  and  _267
REMARK  109  A    between atoms: _267  and  _268
REMARK  110  A    between atoms: _267  and  _270
REMARK  111  A    between atoms: _270  and  _271
REMARK  112  A    between atoms: _276  and  _278
REMARK  113  A    between atoms: _278  and  _279
REMARK  114  A    between atoms: _278  and  _281
REMARK  115  A    between atoms: _281  and  _282
REMARK  116  A    between atoms: _285  and  _287
REMARK  117  A    between atoms: _287  and  _288
REMARK  118  A    between atoms: _287  and  _290
REMARK  119  A    between atoms: _290  and  _291
REMARK  120  A    between atoms: _294  and  _296
REMARK  121  A    between atoms: _296  and  _297
REMARK  122  A    between atoms: _296  and  _299
REMARK  123  A    between atoms: _299  and  _300
REMARK  124  A    between atoms: _306  and  _308
REMARK  125  A    between atoms: _308  and  _309
REMARK  126  A    between atoms: _311  and  _313
REMARK  127  A    between atoms: _313  and  _314
REMARK  128  A    between atoms: _313  and  _316
REMARK  129  A    between atoms: _316  and  _317
REMARK  130  A    between atoms: _317  and  _318
REMARK  131  A    between atoms: _318  and  _319
REMARK  132  A    between atoms: _319  and  _320
REMARK  133  A    between atoms: _324  and  _326
REMARK  134  A    between atoms: _326  and  _327
REMARK  135  A    between atoms: _326  and  _329
REMARK  136  A    between atoms: _329  and  _330
REMARK  137  A    between atoms: _332  and  _334
REMARK  138  A    between atoms: _334  and  _335
REMARK  139  A    between atoms: _334  and  _337
REMARK  140  A    between atoms: _337  and  _338
REMARK  141  A    between atoms: _343  and  _344
REMARK  142  A    between atoms: _346  and  _348
REMARK  143  A    between atoms: _348  and  _349
REMARK  144  A    between atoms: _348  and  _351
REMARK  145  A    between atoms: _354  and  _356
REMARK  146  A    between atoms: _356  and  _357
REMARK  147  A    between atoms: _356  and  _359
REMARK  148  A    between atoms: _359  and  _360
REMARK  149  A    between atoms: _365  and  _366
REMARK  150  A    between atoms: _368  and  _370
REMARK  151  A    between atoms: _370  and  _371
REMARK  152  A    between atoms: _370  and  _373
REMARK  153  A    between atoms: _373  and  _374
REMARK  154  A    between atoms: _379  and  _380
REMARK  155  A    between atoms: _382  and  _384
REMARK  156  A    between atoms: _384  and  _385
REMARK  157  A    between atoms: _384  and  _387
REMARK  158  A    between atoms: _387  and  _388
REMARK  159  A    between atoms: _388  and  _389
REMARK  160  A    between atoms: _392  and  _394
REMARK  161  A    between atoms: _394  and  _395
REMARK  162  A    between atoms: _398  and  _400
REMARK  163  A    between atoms: _400  and  _401
REMARK  164  A    between atoms: _404  and  _406
REMARK  165  A    between atoms: _406  and  _407
REMARK  166  A    between atoms: _406  and  _409
REMARK  167  A    between atoms: _409  and  _410
REMARK  168  A    between atoms: _413  and  _415
REMARK  169  A    between atoms: _415  and  _416
REMARK  170  A    between atoms: _415  and  _418
REMARK  171  A    between atoms: _418  and  _419
REMARK  172  A    between atoms: _422  and  _424
REMARK  173  A    between atoms: _424  and  _425
REMARK  174  A    between atoms: _424  and  _427
REMARK  175  A    between atoms: _427  and  _428
REMARK  176  A    between atoms: _430  and  _432
REMARK  177  A    between atoms: _432  and  _433
REMARK  178  A    between atoms: _432  and  _435
REMARK  179  A    between atoms: _435  and  _436
REMARK  180  A    between atoms: _436  and  _546
REMARK  181  A    between atoms: _437  and  _439
REMARK  182  A    between atoms: _439  and  _440
REMARK  183  A    between atoms: _439  and  _442
REMARK  184  A    between atoms: _442  and  _443
REMARK  185  A    between atoms: _443  and  _444
REMARK  186  A    between atoms: _449  and  _451
REMARK  187  A    between atoms: _451  and  _452
REMARK  188  A    between atoms: _454  and  _456
REMARK  189  A    between atoms: _456  and  _457
REMARK  190  A    between atoms: _456  and  _459
REMARK  191  A    between atoms: _459  and  _460
REMARK  192  A    between atoms: _463  and  _465
REMARK  193  A    between atoms: _465  and  _466
REMARK  194  A    between atoms: _465  and  _468
REMARK  195  A    between atoms: _468  and  _469
REMARK  196  A    between atoms: _471  and  _473
REMARK  197  A    between atoms: _473  and  _474
REMARK  198  A    between atoms: _476  and  _478
REMARK  199  A    between atoms: _478  and  _479
REMARK  200  A    between atoms: _481  and  _483
REMARK  201  A    between atoms: _483  and  _484
REMARK  202  A    between atoms: _483  and  _486
REMARK  203  A    between atoms: _489  and  _491
REMARK  204  A    between atoms: _491  and  _492
REMARK  205  A    between atoms: _491  and  _494
REMARK  206  A    between atoms: _494  and  _495
REMARK  207  A    between atoms: _497  and  _499
REMARK  208  A    between atoms: _499  and  _500
REMARK  209  A    between atoms: _499  and  _502
REMARK  210  A    between atoms: _502  and  _503
REMARK  211  A    between atoms: _513  and  _515
REMARK  212  A    between atoms: _515  and  _516
REMARK  213  A    between atoms: _518  and  _520
REMARK  214  A    between atoms: _520  and  _521
REMARK  215  A    between atoms: _520  and  _523
REMARK  216  A    between atoms: _523  and  _524
REMARK  217  A    between atoms: _524  and  _525
REMARK  218  A    between atoms: _525  and  _526
REMARK  219  A    between atoms: _535  and  _537
REMARK  220  A    between atoms: _537  and  _538
REMARK  221  A    between atoms: _540  and  _542
REMARK  222  A    between atoms: _542  and  _543
REMARK  223  A    between atoms: _542  and  _545
REMARK  224  A    between atoms: _547  and  _549
REMARK  225  A    between atoms: _549  and  _550
REMARK  226  A    between atoms: _553  and  _555
REMARK  227  A    between atoms: _555  and  _556
REMARK  228  A    between atoms: _555  and  _558
REMARK  229  A    between atoms: _558  and  _559
REMARK  230  A    between atoms: _562  and  _564
REMARK  231  A    between atoms: _564  and  _565
REMARK  232  A    between atoms: _564  and  _567
REMARK  233  A    between atoms: _567  and  _568
REMARK  234  A    between atoms: _568  and  _569
REMARK  235  A    between atoms: _569  and  _570
REMARK  236  A    between atoms: _570  and  _571
REMARK  237  A    between atoms: _576  and  _577
REMARK  238  A    between atoms: _582  and  _584
REMARK  239  A    between atoms: _584  and  _585
REMARK  240  A    between atoms: _587  and  _589
REMARK  241  A    between atoms: _589  and  _590
REMARK  242  A    between atoms: _589  and  _592
REMARK  243  A    between atoms: _595  and  _597
REMARK  244  A    between atoms: _597  and  _598
REMARK  245  A    between atoms: _597  and  _600
REMARK  246  A    between atoms: _600  and  _601
REMARK  247  A    between atoms: _606  and  _607
REMARK                            x       y       z     vdW  Elec       q    Type
REMARK                         _______ _______ _______ _____ _____    ______ ____
ROOT
ATOM      1  CA  ILE A   1      -3.972 -24.378 -12.813  0.00  0.00    +0.133 C 
ENDROOT
BRANCH   1   2
ATOM      2  N   ILE A   1      -4.946 -25.492 -12.953  0.00  0.00    -0.239 NA
ATOM      3  H   ILE A   1      -4.805 -26.198 -13.703  0.00  0.00    +0.142 HD
ENDBRANCH   1   2
BRANCH   1   4
ATOM      4  CB  ILE A   1      -2.519 -24.899 -12.750  0.00  0.00    +0.023 C 
ATOM      5  CG2 ILE A   1      -1.564 -23.750 -12.394  0.00  0.00    +0.002 C 
BRANCH   4   6
ATOM      6  CG1 ILE A   1      -2.428 -26.073 -11.769  0.00  0.00    +0.002 C 
ATOM      7  CD1 ILE A   1      -1.077 -26.746 -11.685  0.00  0.00    +0.000 C 
ENDBRANCH   4   6
ENDBRANCH   1   4
BRANCH   1   8
ATOM      8  C   ILE A   1      -4.073 -23.331 -13.928  0.00  0.00    +0.224 C 
ATOM      9  O   ILE A   1      -3.978 -23.656 -15.120  0.00  0.00    -0.287 OA
ENDBRANCH   1   8
TORSDOF 4
REMARK  Name = ../refined-set-2016/4zhl/4zhl_pocket.pdb
REMARK  247 active torsions:
REMARK  status: ('A' for Active; 'I' for Inactive)
REMARK    1  A    between atoms: _1  and  _5
REMARK    2  A    between atoms: _5  and  _6
REMARK    3  A    between atoms: _5  and  _8
REMARK    4  A    between atoms: _8  and  _9
REMARK    5  A    between atoms: _12  and  _14
REMARK    6  A    between atoms: _14  and  _15
REMARK    7  A    between atoms: _14  and  _17
REMARK    8  A    between atoms: _17  and  _18
REMARK    9  A    between atoms: _21  and  _23
REMARK   10  A    between atoms: _23  and  _24
REMARK   11  A    between atoms: _23  and  _26
REMARK   12  A    between atoms: _26  and  _27
REMARK   13  A    between atoms: _30  and  _32
REMARK   14  A    between atoms: _32  and  _33
REMARK   15  A    between atoms: _32  and  _35
REMARK   16  A    between atoms: _35  and  _36
REMARK   17  A    between atoms: _36  and  _37
REMARK   18  A    between atoms: _37  and  _38
REMARK   19  A    between atoms: _47  and  _49
REMARK   20  A    between atoms: _49  and  _50
REMARK   21  A    between atoms: _49  and  _52
REMARK   22  A    between atoms: _52  and  _53
REMARK   23  A    between atoms: _56  and  _58
REMARK   24  A    between atoms: _58  and  _59
REMARK   25  A    between atoms: _58  and  _61
REMARK   26  A    between atoms: _61  and  _62
REMARK   27  A    between atoms: _67  and  _68
REMARK   28  A    between atoms: _70  and  _72
REMARK   29  A    between atoms: _72  and  _73
REMARK   30  A    between atoms: _72  and  _75
REMARK   31  A    between atoms: _78  and  _80
REMARK   32  A    between atoms: _80  and  _81
REMARK   33  A    between atoms: _80  and  _83
REMARK   34  A    between atoms: _83  and  _84
REMARK   35  A    between atoms: _84  and  _122
REMARK   36  A    between atoms: _85  and  _87
REMARK   37  A    between atoms: _87  and  _88
REMARK   38  A    between atoms: _90  and  _92
REMARK   39  A    between atoms: _92  and  _93
REMARK   40  A    between atoms: _96  and  _98
REMARK   41  A    between atoms: _98  and  _99
REMARK   42  A    between atoms: _98  and  _101
REMARK   43  A    between atoms: _101  and  _102
REMARK   44  A    between atoms: _105  and  _107
REMARK   45  A    between atoms: _107  and  _108
REMARK   46  A    between atoms: _107  and  _110
REMARK   47  A    between atoms: _110  and  _111
REMARK   48  A    between atoms: _116  and  _118
REMARK   49  A    between atoms: _118  and  _119
REMARK   50  A    between atoms: _118  and  _121
REMARK   51  A    between atoms: _121  and  _122
REMARK   52  A    between atoms: _123  and  _125
REMARK   53  A    between atoms: _125  and  _126
REMARK   54  A    between atoms: _125  and  _128
REMARK   55  A    between atoms: _128  and  _129
REMARK   56  A    between atoms: _135  and  _137
REMARK   57  A    between atoms: _137  and  _138
REMARK   58  A    between atoms: _137  and  _140
REMARK   59  A    between atoms: _140  and  _141
REMARK   60  A    between atoms: _144  and  _146
REMARK   61  A    between atoms: _146  and  _147
REMARK   62  A    between atoms: _146  and  _149
REMARK   63  A    between atoms: _149  and  _150
REMARK   64  A    between atoms: _153  and  _155
REMARK   65  A    between atoms: _155  and  _156
REMARK   66  A    between atoms: _155  and  _158
REMARK   67  A    between atoms: _158  and  _159
REMARK   68  A    between atoms: _164  and  _165
REMARK   69  A    between atoms: _167  and  _169
REMARK   70  A    between atoms: _169  and  _170
REMARK   71  A    between atoms: _169  and  _172
REMARK   72  A    between atoms: _172  and  _173
REMARK   73  A    between atoms: _178  and  _179
REMARK   74  A    between atoms: _181  and  _183
REMARK   75  A    between atoms: _183  and  _184
REMARK   76  A    between atoms: _183  and  _186
REMARK   77  A    between atoms: _186  and  _187
REMARK   78  A    between atoms: _190  and  _192
REMARK   79  A    between atoms: _192  and  _193
REMARK   80  A    between atoms: _192  and  _195
REMARK   81  A    between atoms: _195  and  _196
REMARK   82  A    between atoms: _201  and  _202
REMARK   83  A    between atoms: _204  and  _206
REMARK   84  A    between atoms: _206  and  _207
REMARK   85  A    between atoms: _206  and  _209
REMARK   86  A    between atoms: _209  and  _210
REMARK   87  A    between atoms: _212  and  _214
REMARK   88  A    between atoms: _214  and  _215
REMARK   89  A    between atoms: _218  and  _220
REMARK   90  A    between atoms: _220  and  _221
REMARK   91  A    between atoms: _220  and  _223
REMARK   92  A    between atoms: _223  and  _224
REMARK   93  A    between atoms: _227  and  _229
REMARK   94  A    between atoms: _229  and  _230
REMARK   95  A    between atoms: _229  and  _232
REMARK   96  A    between atoms: _232  and  _233
REMARK   97  A    between atoms: _236  and  _238
REMARK   98  A    between atoms: _238  and  _239
REMARK   99  A    between atoms: _238  and  _241
REMARK  100  A    between atoms: _241  and  _242
REMARK  101  A    between atoms: _245  and  _247
REMARK  102  A    between atoms: _247  and  _248
REMARK  103  A    between atoms: _251  and  _253
REMARK  104  A    between atoms: _253  and  _254
REMARK  105  A    between atoms: _253  and  _256
REMARK  106  A    between atoms: _256  and  _257
REMARK  107  A    between atoms: _262  and  _263
REMARK  108  A    between atoms: _265  and  _267
REMARK  109  A    between atoms: _267  and  _268
REMARK  110  A    between atoms: _267  and  _270
REMARK  111  A    between atoms: _270  and  _271
REMARK  112  A    between atoms: _276  and  _278
REMARK  113  A    between atoms: _278  and  _279
REMARK  114  A    between atoms: _278  and  _281
REMARK  115  A    between atoms: _281  and  _282
REMARK  116  A    between atoms: _285  and  _287
REMARK  117  A    between atoms: _287  and  _288
REMARK  118  A    between atoms: _287  and  _290
REMARK  119  A    between atoms: _290  and  _291
REMARK  120  A    between atoms: _294  and  _296
REMARK  121  A    between atoms: _296  and  _297
REMARK  122  A    between atoms: _296  and  _299
REMARK  123  A    between atoms: _299  and  _300
REMARK  124  A    between atoms: _306  and  _308
REMARK  125  A    between atoms: _308  and  _309
REMARK  126  A    between atoms: _311  and  _313
REMARK  127  A    between atoms: _313  and  _314
REMARK  128  A    between atoms: _313  and  _316
REMARK  129  A    between atoms: _316  and  _317
REMARK  130  A    between atoms: _317  and  _318
REMARK  131  A    between atoms: _318  and  _319
REMARK  132  A    between atoms: _319  and  _320
REMARK  133  A    between atoms: _324  and  _326
REMARK  134  A    between atoms: _326  and  _327
REMARK  135  A    between atoms: _326  and  _329
REMARK  136  A    between atoms: _329  and  _330
REMARK  137  A    between atoms: _332  and  _334
REMARK  138  A    between atoms: _334  and  _335
REMARK  139  A    between atoms: _334  and  _337
REMARK  140  A    between atoms: _337  and  _338
REMARK  141  A    between atoms: _343  and  _344
REMARK  142  A    between atoms: _346  and  _348
REMARK  143  A    between atoms: _348  and  _349
REMARK  144  A    between atoms: _348  and  _351
REMARK  145  A    between atoms: _354  and  _356
REMARK  146  A    between atoms: _356  and  _357
REMARK  147  A    between atoms: _356  and  _359
REMARK  148  A    between atoms: _359  and  _360
REMARK  149  A    between atoms: _365  and  _366
REMARK  150  A    between atoms: _368  and  _370
REMARK  151  A    between atoms: _370  and  _371
REMARK  152  A    between atoms: _370  and  _373
REMARK  153  A    between atoms: _373  and  _374
REMARK  154  A    between atoms: _379  and  _380
REMARK  155  A    between atoms: _382  and  _384
REMARK  156  A    between atoms: _384  and  _385
REMARK  157  A    between atoms: _384  and  _387
REMARK  158  A    between atoms: _387  and  _388
REMARK  159  A    between atoms: _388  and  _389
REMARK  160  A    between atoms: _392  and  _394
REMARK  161  A    between atoms: _394  and  _395
REMARK  162  A    between atoms: _398  and  _400
REMARK  163  A    between atoms: _400  and  _401
REMARK  164  A    between atoms: _404  and  _406
REMARK  165  A    between atoms: _406  and  _407
REMARK  166  A    between atoms: _406  and  _409
REMARK  167  A    between atoms: _409  and  _410
REMARK  168  A    between atoms: _413  and  _415
REMARK  169  A    between atoms: _415  and  _416
REMARK  170  A    between atoms: _415  and  _418
REMARK  171  A    between atoms: _418  and  _419
REMARK  172  A    between atoms: _422  and  _424
REMARK  173  A    between atoms: _424  and  _425
REMARK  174  A    between atoms: _424  and  _427
REMARK  175  A    between atoms: _427  and  _428
REMARK  176  A    between atoms: _430  and  _432
REMARK  177  A    between atoms: _432  and  _433
REMARK  178  A    between atoms: _432  and  _435
REMARK  179  A    between atoms: _435  and  _436
REMARK  180  A    between atoms: _436  and  _546
REMARK  181  A    between atoms: _437  and  _439
REMARK  182  A    between atoms: _439  and  _440
REMARK  183  A    between atoms: _439  and  _442
REMARK  184  A    between atoms: _442  and  _443
REMARK  185  A    between atoms: _443  and  _444
REMARK  186  A    between atoms: _449  and  _451
REMARK  187  A    between atoms: _451  and  _452
REMARK  188  A    between atoms: _454  and  _456
REMARK  189  A    between atoms: _456  and  _457
REMARK  190  A    between atoms: _456  and  _459
REMARK  191  A    between atoms: _459  and  _460
REMARK  192  A    between atoms: _463  and  _465
REMARK  193  A    between atoms: _465  and  _466
REMARK  194  A    between atoms: _465  and  _468
REMARK  195  A    between atoms: _468  and  _469
REMARK  196  A    between atoms: _471  and  _473
REMARK  197  A    between atoms: _473  and  _474
REMARK  198  A    between atoms: _476  and  _478
REMARK  199  A    between atoms: _478  and  _479
REMARK  200  A    between atoms: _481  and  _483
REMARK  201  A    between atoms: _483  and  _484
REMARK  202  A    between atoms: _483  and  _486
REMARK  203  A    between atoms: _489  and  _491
REMARK  204  A    between atoms: _491  and  _492
REMARK  205  A    between atoms: _491  and  _494
REMARK  206  A    between atoms: _494  and  _495
REMARK  207  A    between atoms: _497  and  _499
REMARK  208  A    between atoms: _499  and  _500
REMARK  209  A    between atoms: _499  and  _502
REMARK  210  A    between atoms: _502  and  _503
REMARK  211  A    between atoms: _513  and  _515
REMARK  212  A    between atoms: _515  and  _516
REMARK  213  A    between atoms: _518  and  _520
REMARK  214  A    between atoms: _520  and  _521
REMARK  215  A    between atoms: _520  and  _523
REMARK  216  A    between atoms: _523  and  _524
REMARK  217  A    between atoms: _524  and  _525
REMARK  218  A    between atoms: _525  and  _526
REMARK  219  A    between atoms: _535  and  _537
REMARK  220  A    between atoms: _537  and  _538
REMARK  221  A    between atoms: _540  and  _542
REMARK  222  A    between atoms: _542  and  _543
REMARK  223  A    between atoms: _542  and  _545
REMARK  224  A    between atoms: _547  and  _549
REMARK  225  A    between atoms: _549  and  _550
REMARK  226  A    between atoms: _553  and  _555
REMARK  227  A    between atoms: _555  and  _556
REMARK  228  A    between atoms: _555  and  _558
REMARK  229  A    between atoms: _558  and  _559
REMARK  230  A    between atoms: _562  and  _564
REMARK  231  A    between atoms: _564  and  _565
REMARK  232  A    between atoms: _564  and  _567
REMARK  233  A    between atoms: _567  and  _568
REMARK  234  A    between atoms: _568  and  _569
REMARK  235  A    between atoms: _569  and  _570
REMARK  236  A    between atoms: _570  and  _571
REMARK  237  A    between atoms: _576  and  _577
REMARK  238  A    between atoms: _582  and  _584
REMARK  239  A    between atoms: _584  and  _585
REMARK  240  A    between atoms: _587  and  _589
REMARK  241  A    between atoms: _589  and  _590
REMARK  242  A    between atoms: _589  and  _592
REMARK  243  A    between atoms: _595  and  _597
REMARK  244  A    between atoms: _597  and  _598
REMARK  245  A    between atoms: _597  and  _600
REMARK  246  A    between atoms: _600  and  _601
REMARK  247  A    between atoms: _606  and  _607
REMARK                            x       y       z     vdW  Elec       q    Type
REMARK                         _______ _______ _______ _____ _____    ______ ____
ROOT
ATOM      1  NE  ARG A   1       0.744 -16.851 -18.124  0.00  0.00    -0.265 N 
ATOM      2  HE  ARG A   1       0.381 -15.913 -18.389  0.00  0.00    +0.259 HD
ATOM      3  CZ  ARG A   1       0.878 -17.761 -19.060  0.00  0.00    +0.342 C 
ATOM      4  NH2 ARG A   1       1.370 -18.932 -18.740  0.00  0.00    -0.292 N 
ATOM      5 HH21 ARG A   1       1.647 -19.129 -17.757  0.00  0.00    +0.255 HD
ATOM      6 HH22 ARG A   1       1.483 -19.665 -19.469  0.00  0.00    +0.255 HD
ATOM      7  NH1 ARG A   1       0.532 -17.500 -20.300  0.00  0.00    -0.292 N 
ATOM      8 HH11 ARG A   1       0.148 -16.566 -20.547  0.00  0.00    +0.255 HD
ATOM      9 HH12 ARG A   1       0.642 -18.228 -21.035  0.00  0.00    +0.255 HD
ENDROOT
BRANCH   1  10
ATOM     10  CD  ARG A   1       1.079 -17.097 -16.741  0.00  0.00    +0.174 C 
BRANCH  10  11
ATOM     11  CG  ARG A   1      -0.140 -16.971 -15.879  0.00  0.00    +0.045 C 
BRANCH  11  12
ATOM     12  CB  ARG A   1      -1.090 -18.128 -16.010  0.00  0.00    +0.029 C 
BRANCH  12  13
ATOM     13  CA  ARG A   1      -2.311 -17.943 -15.124  0.00  0.00    +0.133 C 
BRANCH  13  14
ATOM     14  N   ARG A   1      -3.200 -19.095 -15.207  0.00  0.00    -0.239 NA
ATOM     15  H   ARG A   1      -3.706 -19.271 -16.098  0.00  0.00    +0.142 HD
ENDBRANCH  13  14
BRANCH  13  16
ATOM     16  C   ARG A   1      -2.981 -16.588 -15.460  0.00  0.00    +0.224 C 
ATOM     17  O   ARG A   1      -3.666 -16.473 -16.451  0.00  0.00    -0.287 OA
ENDBRANCH  13  16
ENDBRANCH  12  13
ENDBRANCH  11  12
ENDBRANCH  10  11
ENDBRANCH   1  10
TORSDOF 6
REMARK  Name = ../refined-set-2016/4zhl/4zhl_pocket.pdb
REMARK  247 active torsions:
REMARK  status: ('A' for Active; 'I' for Inactive)
REMARK    1  A    between atoms: _1  and  _5
REMARK    2  A    between atoms: _5  and  _6
REMARK    3  A    between atoms: _5  and  _8
REMARK    4  A    between atoms: _8  and  _9
REMARK    5  A    between atoms: _12  and  _14
REMARK    6  A    between atoms: _14  and  _15
REMARK    7  A    between atoms: _14  and  _17
REMARK    8  A    between atoms: _17  and  _18
REMARK    9  A    between atoms: _21  and  _23
REMARK   10  A    between atoms: _23  and  _24
REMARK   11  A    between atoms: _23  and  _26
REMARK   12  A    between atoms: _26  and  _27
REMARK   13  A    between atoms: _30  and  _32
REMARK   14  A    between atoms: _32  and  _33
REMARK   15  A    between atoms: _32  and  _35
REMARK   16  A    between atoms: _35  and  _36
REMARK   17  A    between atoms: _36  and  _37
REMARK   18  A    between atoms: _37  and  _38
REMARK   19  A    between atoms: _47  and  _49
REMARK   20  A    between atoms: _49  and  _50
REMARK   21  A    between atoms: _49  and  _52
REMARK   22  A    between atoms: _52  and  _53
REMARK   23  A    between atoms: _56  and  _58
REMARK   24  A    between atoms: _58  and  _59
REMARK   25  A    between atoms: _58  and  _61
REMARK   26  A    between atoms: _61  and  _62
REMARK   27  A    between atoms: _67  and  _68
REMARK   28  A    between atoms: _70  and  _72
REMARK   29  A    between atoms: _72  and  _73
REMARK   30  A    between atoms: _72  and  _75
REMARK   31  A    between atoms: _78  and  _80
REMARK   32  A    between atoms: _80  and  _81
REMARK   33  A    between atoms: _80  and  _83
REMARK   34  A    between atoms: _83  and  _84
REMARK   35  A    between atoms: _84  and  _122
REMARK   36  A    between atoms: _85  and  _87
REMARK   37  A    between atoms: _87  and  _88
REMARK   38  A    between atoms: _90  and  _92
REMARK   39  A    between atoms: _92  and  _93
REMARK   40  A    between atoms: _96  and  _98
REMARK   41  A    between atoms: _98  and  _99
REMARK   42  A    between atoms: _98  and  _101
REMARK   43  A    between atoms: _101  and  _102
REMARK   44  A    between atoms: _105  and  _107
REMARK   45  A    between atoms: _107  and  _108
REMARK   46  A    between atoms: _107  and  _110
REMARK   47  A    between atoms: _110  and  _111
REMARK   48  A    between atoms: _116  and  _118
REMARK   49  A    between atoms: _118  and  _119
REMARK   50  A    between atoms: _118  and  _121
REMARK   51  A    between atoms: _121  and  _122
REMARK   52  A    between atoms: _123  and  _125
REMARK   53  A    between atoms: _125  and  _126
REMARK   54  A    between atoms: _125  and  _128
REMARK   55  A    between atoms: _128  and  _129
REMARK   56  A    between atoms: _135  and  _137
REMARK   57  A    between atoms: _137  and  _138
REMARK   58  A    between atoms: _137  and  _140
REMARK   59  A    between atoms: _140  and  _141
REMARK   60  A    between atoms: _144  and  _146
REMARK   61  A    between atoms: _146  and  _147
REMARK   62  A    between atoms: _146  and  _149
REMARK   63  A    between atoms: _149  and  _150
REMARK   64  A    between atoms: _153  and  _155
REMARK   65  A    between atoms: _155  and  _156
REMARK   66  A    between atoms: _155  and  _158
REMARK   67  A    between atoms: _158  and  _159
REMARK   68  A    between atoms: _164  and  _165
REMARK   69  A    between atoms: _167  and  _169
REMARK   70  A    between atoms: _169  and  _170
REMARK   71  A    between atoms: _169  and  _172
REMARK   72  A    between atoms: _172  and  _173
REMARK   73  A    between atoms: _178  and  _179
REMARK   74  A    between atoms: _181  and  _183
REMARK   75  A    between atoms: _183  and  _184
REMARK   76  A    between atoms: _183  and  _186
REMARK   77  A    between atoms: _186  and  _187
REMARK   78  A    between atoms: _190  and  _192
REMARK   79  A    between atoms: _192  and  _193
REMARK   80  A    between atoms: _192  and  _195
REMARK   81  A    between atoms: _195  and  _196
REMARK   82  A    between atoms: _201  and  _202
REMARK   83  A    between atoms: _204  and  _206
REMARK   84  A    between atoms: _206  and  _207
REMARK   85  A    between atoms: _206  and  _209
REMARK   86  A    between atoms: _209  and  _210
REMARK   87  A    between atoms: _212  and  _214
REMARK   88  A    between atoms: _214  and  _215
REMARK   89  A    between atoms: _218  and  _220
REMARK   90  A    between atoms: _220  and  _221
REMARK   91  A    between atoms: _220  and  _223
REMARK   92  A    between atoms: _223  and  _224
REMARK   93  A    between atoms: _227  and  _229
REMARK   94  A    between atoms: _229  and  _230
REMARK   95  A    between atoms: _229  and  _232
REMARK   96  A    between atoms: _232  and  _233
REMARK   97  A    between atoms: _236  and  _238
REMARK   98  A    between atoms: _238  and  _239
REMARK   99  A    between atoms: _238  and  _241
REMARK  100  A    between atoms: _241  and  _242
REMARK  101  A    between atoms: _245  and  _247
REMARK  102  A    between atoms: _247  and  _248
REMARK  103  A    between atoms: _251  and  _253
REMARK  104  A    between atoms: _253  and  _254
REMARK  105  A    between atoms: _253  and  _256
REMARK  106  A    between atoms: _256  and  _257
REMARK  107  A    between atoms: _262  and  _263
REMARK  108  A    between atoms: _265  and  _267
REMARK  109  A    between atoms: _267  and  _268
REMARK  110  A    between atoms: _267  and  _270
REMARK  111  A    between atoms: _270  and  _271
REMARK  112  A    between atoms: _276  and  _278
REMARK  113  A    between atoms: _278  and  _279
REMARK  114  A    between atoms: _278  and  _281
REMARK  115  A    between atoms: _281  and  _282
REMARK  116  A    between atoms: _285  and  _287
REMARK  117  A    between atoms: _287  and  _288
REMARK  118  A    between atoms: _287  and  _290
REMARK  119  A    between atoms: _290  and  _291
REMARK  120  A    between atoms: _294  and  _296
REMARK  121  A    between atoms: _296  and  _297
REMARK  122  A    between atoms: _296  and  _299
REMARK  123  A    between atoms: _299  and  _300
REMARK  124  A    between atoms: _306  and  _308
REMARK  125  A    between atoms: _308  and  _309
REMARK  126  A    between atoms: _311  and  _313
REMARK  127  A    between atoms: _313  and  _314
REMARK  128  A    between atoms: _313  and  _316
REMARK  129  A    between atoms: _316  and  _317
REMARK  130  A    between atoms: _317  and  _318
REMARK  131  A    between atoms: _318  and  _319
REMARK  132  A    between atoms: _319  and  _320
REMARK  133  A    between atoms: _324  and  _326
REMARK  134  A    between atoms: _326  and  _327
REMARK  135  A    between atoms: _326  and  _329
REMARK  136  A    between atoms: _329  and  _330
REMARK  137  A    between atoms: _332  and  _334
REMARK  138  A    between atoms: _334  and  _335
REMARK  139  A    between atoms: _334  and  _337
REMARK  140  A    between atoms: _337  and  _338
REMARK  141  A    between atoms: _343  and  _344
REMARK  142  A    between atoms: _346  and  _348
REMARK  143  A    between atoms: _348  and  _349
REMARK  144  A    between atoms: _348  and  _351
REMARK  145  A    between atoms: _354  and  _356
REMARK  146  A    between atoms: _356  and  _357
REMARK  147  A    between atoms: _356  and  _359
REMARK  148  A    between atoms: _359  and  _360
REMARK  149  A    between atoms: _365  and  _366
REMARK  150  A    between atoms: _368  and  _370
REMARK  151  A    between atoms: _370  and  _371
REMARK  152  A    between atoms: _370  and  _373
REMARK  153  A    between atoms: _373  and  _374
REMARK  154  A    between atoms: _379  and  _380
REMARK  155  A    between atoms: _382  and  _384
REMARK  156  A    between atoms: _384  and  _385
REMARK  157  A    between atoms: _384  and  _387
REMARK  158  A    between atoms: _387  and  _388
REMARK  159  A    between atoms: _388  and  _389
REMARK  160  A    between atoms: _392  and  _394
REMARK  161  A    between atoms: _394  and  _395
REMARK  162  A    between atoms: _398  and  _400
REMARK  163  A    between atoms: _400  and  _401
REMARK  164  A    between atoms: _404  and  _406
REMARK  165  A    between atoms: _406  and  _407
REMARK  166  A    between atoms: _406  and  _409
REMARK  167  A    between atoms: _409  and  _410
REMARK  168  A    between atoms: _413  and  _415
REMARK  169  A    between atoms: _415  and  _416
REMARK  170  A    between atoms: _415  and  _418
REMARK  171  A    between atoms: _418  and  _419
REMARK  172  A    between atoms: _422  and  _424
REMARK  173  A    between atoms: _424  and  _425
REMARK  174  A    between atoms: _424  and  _427
REMARK  175  A    between atoms: _427  and  _428
REMARK  176  A    between atoms: _430  and  _432
REMARK  177  A    between atoms: _432  and  _433
REMARK  178  A    between atoms: _432  and  _435
REMARK  179  A    between atoms: _435  and  _436
REMARK  180  A    between atoms: _436  and  _546
REMARK  181  A    between atoms: _437  and  _439
REMARK  182  A    between atoms: _439  and  _440
REMARK  183  A    between atoms: _439  and  _442
REMARK  184  A    between atoms: _442  and  _443
REMARK  185  A    between atoms: _443  and  _444
REMARK  186  A    between atoms: _449  and  _451
REMARK  187  A    between atoms: _451  and  _452
REMARK  188  A    between atoms: _454  and  _456
REMARK  189  A    between atoms: _456  and  _457
REMARK  190  A    between atoms: _456  and  _459
REMARK  191  A    between atoms: _459  and  _460
REMARK  192  A    between atoms: _463  and  _465
REMARK  193  A    between atoms: _465  and  _466
REMARK  194  A    between atoms: _465  and  _468
REMARK  195  A    between atoms: _468  and  _469
REMARK  196  A    between atoms: _471  and  _473
REMARK  197  A    between atoms: _473  and  _474
REMARK  198  A    between atoms: _476  and  _478
REMARK  199  A    between atoms: _478  and  _479
REMARK  200  A    between atoms: _481  and  _483
REMARK  201  A    between atoms: _483  and  _484
REMARK  202  A    between atoms: _483  and  _486
REMARK  203  A    between atoms: _489  and  _491
REMARK  204  A    between atoms: _491  and  _492
REMARK  205  A    between atoms: _491  and  _494
REMARK  206  A    between atoms: _494  and  _495
REMARK  207  A    between atoms: _497  and  _499
REMARK  208  A    between atoms: _499  and  _500
REMARK  209  A    between atoms: _499  and  _502
REMARK  210  A    between atoms: _502  and  _503
REMARK  211  A    between atoms: _513  and  _515
REMARK  212  A    between atoms: _515  and  _516
REMARK  213  A    between atoms: _518  and  _520
REMARK  214  A    between atoms: _520  and  _521
REMARK  215  A    between atoms: _520  and  _523
REMARK  216  A    between atoms: _523  and  _524
REMARK  217  A    between atoms: _524  and  _525
REMARK  218  A    between atoms: _525  and  _526
REMARK  219  A    between atoms: _535  and  _537
REMARK  220  A    between atoms: _537  and  _538
REMARK  221  A    between atoms: _540  and  _542
REMARK  222  A    between atoms: _542  and  _543
REMARK  223  A    between atoms: _542  and  _545
REMARK  224  A    between atoms: _547  and  _549
REMARK  225  A    between atoms: _549  and  _550
REMARK  226  A    between atoms: _553  and  _555
REMARK  227  A    between atoms: _555  and  _556
REMARK  228  A    between atoms: _555  and  _558
REMARK  229  A    between atoms: _558  and  _559
REMARK  230  A    between atoms: _562  and  _564
REMARK  231  A    between atoms: _564  and  _565
REMARK  232  A    between atoms: _564  and  _567
REMARK  233  A    between atoms: _567  and  _568
REMARK  234  A    between atoms: _568  and  _569
REMARK  235  A    between atoms: _569  and  _570
REMARK  236  A    between atoms: _570  and  _571
REMARK  237  A    between atoms: _576  and  _577
REMARK  238  A    between atoms: _582  and  _584
REMARK  239  A    between atoms: _584  and  _585
REMARK  240  A    between atoms: _587  and  _589
REMARK  241  A    between atoms: _589  and  _590
REMARK  242  A    between atoms: _589  and  _592
REMARK  243  A    between atoms: _595  and  _597
REMARK  244  A    between atoms: _597  and  _598
REMARK  245  A    between atoms: _597  and  _600
REMARK  246  A    between atoms: _600  and  _601
REMARK  247  A    between atoms: _606  and  _607
REMARK                            x       y       z     vdW  Elec       q    Type
REMARK                         _______ _______ _______ _____ _____    ______ ____
ROOT
ATOM      1  CA  CYS A   4       3.859 -25.587 -17.464  0.00  0.00    +0.160 C 
ENDROOT
BRANCH   1   2
ATOM      2  N   CYS A   4       5.012 -26.480 -17.609  0.00  0.00    -0.296 N 
ATOM      3  H   CYS A   4       5.075 -27.332 -17.016  0.00  0.00    +0.150 HD
ATOM      4  C   HIS A   3       5.980 -26.221 -18.485  0.00  0.00    +0.241 C 
ATOM      5  O   HIS A   3       5.918 -25.274 -19.260  0.00  0.00    -0.273 OA
BRANCH   4   6
ATOM      6  CA  HIS A   3       7.181 -27.165 -18.502  0.00  0.00    +0.155 C 
BRANCH   6   7
ATOM      7  N   HIS A   3       7.316 -27.851 -17.229  0.00  0.00    -0.297 N 
ATOM      8  C   THR A   2       7.602 -27.194 -16.111  0.00  0.00    +0.243 C 
ATOM      9  O   THR A   2       7.688 -25.962 -16.066  0.00  0.00    -0.273 OA
ATOM     10  H   HIS A   3       7.185 -28.882 -17.192  0.00  0.00    +0.150 HD
BRANCH   8  11
ATOM     11  CA  THR A   2       7.838 -28.027 -14.851  0.00  0.00    +0.176 C 
BRANCH  11  12
ATOM     12  N   THR A   2       7.049 -29.256 -14.824  0.00  0.00    -0.295 N 
ATOM     13  C   ALA A   1       5.739 -29.218 -14.801  0.00  0.00    +0.238 C 
ATOM     14  O   ALA A   1       5.145 -28.191 -14.863  0.00  0.00    -0.274 OA
ATOM     15  H   THR A   2       7.534 -30.176 -14.823  0.00  0.00    +0.150 HD
BRANCH  13  16
ATOM     16  CA  ALA A   1       5.008 -30.548 -14.638  0.00  0.00    +0.145 C 
ATOM     17  CB  ALA A   1       4.511 -31.058 -15.974  0.00  0.00    +0.028 C 
BRANCH  16  18
ATOM     18  N   ALA A   1       3.902 -30.448 -13.710  0.00  0.00    -0.238 NA
ATOM     19  H   ALA A   1       3.086 -29.871 -13.997  0.00  0.00    +0.142 HD
ENDBRANCH  16  18
ENDBRANCH  13  16
ENDBRANCH  11  12
BRANCH  11  20
ATOM     20  CB  THR A   2       9.352 -28.325 -14.676  0.00  0.00    +0.137 C 
ATOM     21  CG2 THR A   2      10.213 -27.226 -15.247  0.00  0.00    +0.034 C 
BRANCH  20  22
ATOM     22  OG1 THR A   2       9.659 -28.433 -13.281  0.00  0.00    -0.382 OA
ATOM     23  HG1 THR A   2       9.129 -29.169 -12.884  0.00  0.00    +0.210 HD
ENDBRANCH  20  22
ENDBRANCH  11  20
ENDBRANCH   8  11
ENDBRANCH   6   7
BRANCH   6  24
ATOM     24  CB  HIS A   3       7.069 -28.177 -19.651  0.00  0.00    +0.076 C 
BRANCH  24  25
ATOM     25  CG  HIS A   3       5.737 -28.844 -19.746  0.00  0.00    +0.082 A 
ATOM     26  ND1 HIS A   3       5.516 -30.144 -19.344  0.00  0.00    -0.227 NA
ATOM     27  CE1 HIS A   3       4.249 -30.457 -19.558  0.00  0.00    +0.199 A 
ATOM     28  NE2 HIS A   3       3.642 -29.405 -20.077  0.00  0.00    -0.221 NA
ATOM     29  CD2 HIS A   3       4.548 -28.383 -20.195  0.00  0.00    +0.115 A 
ENDBRANCH  24  25
ENDBRANCH   6  24
ENDBRANCH   4   6
ENDBRANCH   1   2
BRANCH   1  30
ATOM     30  C   CYS A   4       4.212 -24.175 -17.049  0.00  0.00    +0.242 C 
ATOM     31  N   PHE A   5       5.343 -24.036 -16.394  0.00  0.00    -0.297 N 
ATOM     32  H   PHE A   5       5.999 -24.841 -16.342  0.00  0.00    +0.150 HD
ATOM     33  O   CYS A   4       3.423 -23.259 -17.238  0.00  0.00    -0.273 OA
BRANCH  31  34
ATOM     34  CA  PHE A   5       5.699 -22.800 -15.746  0.00  0.00    +0.153 C 
BRANCH  34  35
ATOM     35  C   PHE A   5       7.001 -22.172 -16.224  0.00  0.00    +0.241 C 
ATOM     36  O   PHE A   5       7.338 -21.077 -15.869  0.00  0.00    -0.273 OA
ATOM     37  N   ILE A   6       7.729 -22.899 -17.024  0.00  0.00    -0.297 N 
ATOM     38  H   ILE A   6       7.328 -23.768 -17.431  0.00  0.00    +0.150 HD
BRANCH  37  39
ATOM     39  CA  ILE A   6       9.076 -22.521 -17.354  0.00  0.00    +0.149 C 
BRANCH  39  40
ATOM     40  C   ILE A   6       9.106 -21.178 -18.096  0.00  0.00    +0.241 C 
ATOM     41  O   ILE A   6       9.938 -20.373 -17.802  0.00  0.00    -0.273 OA
ATOM     42  N   ASP A   7       8.163 -20.932 -18.993  0.00  0.00    -0.297 N 
ATOM     43  H   ASP A   7       7.489 -21.682 -19.246  0.00  0.00    +0.150 HD
BRANCH  42  44
ATOM     44  CA  ASP A   7       8.058 -19.640 -19.623  0.00  0.00    +0.160 C 
BRANCH  44  45
ATOM     45  C   ASP A   7       7.706 -18.421 -18.760  0.00  0.00    +0.241 C 
ATOM     46  N   TYR A   8       6.895 -18.579 -17.749  0.00  0.00    -0.298 N 
ATOM     47  H   TYR A   8       6.518 -19.529 -17.559  0.00  0.00    +0.150 HD
ATOM     48  O   ASP A   7       8.102 -17.354 -19.101  0.00  0.00    -0.273 OA
BRANCH  46  49
ATOM     49  CA  TYR A   8       6.498 -17.493 -16.882  0.00  0.00    +0.141 C 
BRANCH  49  50
ATOM     50  C   TYR A   8       6.672 -17.915 -15.403  0.00  0.00    +0.227 C 
ATOM     51  O   TYR A   8       5.698 -18.216 -14.763  0.00  0.00    -0.286 OA
ENDBRANCH  49  50
BRANCH  49  52
ATOM     52  CB  TYR A   8       5.062 -17.052 -17.183  0.00  0.00    +0.054 C 
BRANCH  52  53
ATOM     53  CG  TYR A   8       4.707 -16.650 -18.634  0.00  0.00    -0.020 A 
ATOM     54  CD2 TYR A   8       4.294 -15.366 -18.935  0.00  0.00    -0.001 A 
ATOM     55  CE2 TYR A   8       4.007 -14.973 -20.221  0.00  0.00    +0.036 A 
ATOM     56  CZ  TYR A   8       4.089 -15.876 -21.227  0.00  0.00    +0.134 A 
ATOM     57  CE1 TYR A   8       4.468 -17.153 -20.977  0.00  0.00    +0.036 A 
ATOM     58  CD1 TYR A   8       4.767 -17.543 -19.680  0.00  0.00    -0.001 A 
BRANCH  56  59
ATOM     59  OH  TYR A   8       3.777 -15.493 -22.492  0.00  0.00    -0.506 OA
ATOM     60  HH  TYR A   8       3.887 -16.262 -23.105  0.00  0.00    +0.292 HD
ENDBRANCH  56  59
ENDBRANCH  52  53
ENDBRANCH  49  52
ENDBRANCH  46  49
ENDBRANCH  44  45
BRANCH  44  61
ATOM     61  CB  ASP A   7       7.194 -19.662 -20.860  0.00  0.00    +0.143 C 
BRANCH  61  62
ATOM     62  CG  ASP A   7       7.483 -20.837 -21.731  0.00  0.00    +0.367 C 
ATOM     63  OD2 ASP A   7       8.585 -21.365 -21.626  0.00  0.00    -0.246 OA
ATOM     64  OD1 ASP A   7       6.622 -21.229 -22.526  0.00  0.00    -0.246 OA
ENDBRANCH  61  62
ENDBRANCH  44  61
ENDBRANCH  42  44
ENDBRANCH  39  40
BRANCH  39  65
ATOM     65  CB  ILE A   6       9.842 -23.687 -18.024  0.00  0.00    +0.027 C 
ATOM     66  CG2 ILE A   6       9.360 -23.938 -19.428  0.00  0.00    +0.002 C 
BRANCH  65  67
ATOM     67  CG1 ILE A   6      11.336 -23.456 -17.992  0.00  0.00    +0.002 C 
ATOM     68  CD1 ILE A   6      11.926 -23.294 -16.621  0.00  0.00    +0.000 C 
ENDBRANCH  65  67
ENDBRANCH  39  65
ENDBRANCH  37  39
ENDBRANCH  34  35
BRANCH  34  69
ATOM     69  CB  PHE A   5       5.757 -23.008 -14.240  0.00  0.00    +0.055 C 
BRANCH  69  70
ATOM     70  CG  PHE A   5       4.612 -23.789 -13.705  0.00  0.00    -0.020 A 
ATOM     71  CD2 PHE A   5       3.420 -23.193 -13.444  0.00  0.00    -0.004 A 
ATOM     72  CE2 PHE A   5       2.361 -23.910 -12.956  0.00  0.00    -0.000 A 
ATOM     73  CZ  PHE A   5       2.480 -25.244 -12.721  0.00  0.00    -0.000 A 
ATOM     74  CE1 PHE A   5       3.674 -25.858 -12.980  0.00  0.00    -0.000 A 
ATOM     75  CD1 PHE A   5       4.732 -25.129 -13.478  0.00  0.00    -0.004 A 
ENDBRANCH  69  70
ENDBRANCH  34  69
ENDBRANCH  31  34
ENDBRANCH   1  30
BRANCH   1  76
ATOM     76  CB  CYS A   4       2.936 -26.131 -16.391  0.00  0.00    +0.098 C 
BRANCH  76  77
ATOM     77  SG  CYS A   4       2.276 -27.753 -16.770  0.00  0.00    -0.080 S 
BRANCH  77  78
ATOM     78  SG  CYS A   4       0.612 -27.294 -17.833  0.00  0.00    -0.080 S 
BRANCH  78  79
ATOM     79  CB  CYS A   4      -0.657 -27.443 -16.558  0.00  0.00    +0.098 C 
BRANCH  79  80
ATOM     80  CA  CYS A   4      -2.109 -27.178 -16.947  0.00  0.00    +0.160 C 
BRANCH  80  81
ATOM     81  C   CYS A   4      -2.929 -27.812 -15.824  0.00  0.00    +0.242 C 
ATOM     82  O   CYS A   4      -3.457 -27.136 -14.943  0.00  0.00    -0.273 OA
ATOM     83  N   PHE A   5      -2.961 -29.131 -15.844  0.00  0.00    -0.296 N 
ATOM     84  H   PHE A   5      -2.618 -29.636 -16.686  0.00  0.00    +0.150 HD
BRANCH  83  85
ATOM     85  CA  PHE A   5      -3.463 -29.891 -14.718  0.00  0.00    +0.163 C 
BRANCH  85  86
ATOM     86  C   PHE A   5      -2.403 -30.055 -13.636  0.00  0.00    +0.229 C 
ATOM     87  O   PHE A   5      -1.266 -29.597 -13.760  0.00  0.00    -0.286 OA
ENDBRANCH  85  86
ENDBRANCH  83  85
ENDBRANCH  80  81
BRANCH  80  89
ATOM     88  C   HIS A   3      -2.081 -25.056 -18.149  0.00  0.00    +0.241 C 
ATOM     89  N   CYS A   4      -2.336 -25.744 -17.041  0.00  0.00    -0.296 N 
ATOM     90  H   CYS A   4      -2.711 -25.240 -16.212  0.00  0.00    +0.150 HD
ATOM     91  O   HIS A   3      -1.752 -25.582 -19.214  0.00  0.00    -0.273 OA
BRANCH  88  92
ATOM     92  CA  HIS A   3      -2.239 -23.543 -18.046  0.00  0.00    +0.149 C 
BRANCH  92  94
ATOM     93  C   THR A   2      -4.364 -22.631 -18.691  0.00  0.00    +0.241 C 
ATOM     94  N   HIS A   3      -3.624 -23.251 -17.794  0.00  0.00    -0.297 N 
ATOM     95  H   HIS A   3      -4.049 -23.534 -16.888  0.00  0.00    +0.150 HD
ATOM     96  O   THR A   2      -3.931 -22.303 -19.797  0.00  0.00    -0.273 OA
BRANCH  93  97
ATOM     97  CA  THR A   2      -5.766 -22.266 -18.247  0.00  0.00    +0.153 C 
BRANCH  97 100
ATOM     98  C   ALA A   1      -5.630 -19.851 -18.348  0.00  0.00    +0.241 C 
ATOM     99  O   ALA A   1      -4.739 -19.832 -17.570  0.00  0.00    -0.274 OA
ATOM    100  N   THR A   2      -6.152 -20.965 -18.781  0.00  0.00    -0.297 N 
ATOM    101  H   THR A   2      -6.869 -20.924 -19.534  0.00  0.00    +0.150 HD
BRANCH  98 102
ATOM    102  CA  ALA A   1      -6.239 -18.582 -18.922  0.00  0.00    +0.172 C 
BRANCH 102 103
ATOM    103  N   ALA A   1      -6.090 -17.410 -18.083  0.00  0.00    -0.236 NA
ATOM    104  H   ALA A   1      -5.156 -17.177 -17.690  0.00  0.00    +0.142 HD
ENDBRANCH 102 103
BRANCH 102 105
ATOM    105  CB  ALA A   1      -5.620 -18.388 -20.284  0.00  0.00    +0.135 C 
ATOM    106  CG2 ALA A   1      -6.243 -17.294 -21.002  0.00  0.00    +0.034 C 
BRANCH 105 107
ATOM    107  OG1 ALA A   1      -4.259 -18.104 -20.116  0.00  0.00    -0.383 OA
ATOM    108  HG1 ALA A   1      -3.821 -18.859 -19.649  0.00  0.00    +0.210 HD
ENDBRANCH 105 107
ENDBRANCH 102 105
ENDBRANCH  98 102
ENDBRANCH  97 100
BRANCH  97 109
ATOM    109  CB  THR A   2      -6.763 -23.320 -18.667  0.00  0.00    +0.055 C 
BRANCH 109 110
ATOM    110  CG  THR A   2      -6.584 -24.677 -18.010  0.00  0.00    -0.020 A 
ATOM    111  CD2 THR A   2      -6.975 -24.894 -16.698  0.00  0.00    -0.001 A 
ATOM    112  CE2 THR A   2      -6.862 -26.156 -16.098  0.00  0.00    +0.036 A 
ATOM    113  CZ  THR A   2      -6.339 -27.208 -16.816  0.00  0.00    +0.134 A 
ATOM    114  CE1 THR A   2      -5.967 -27.004 -18.155  0.00  0.00    +0.036 A 
ATOM    115  CD1 THR A   2      -6.093 -25.749 -18.724  0.00  0.00    -0.001 A 
BRANCH 113 116
ATOM    116  OH  THR A   2      -6.243 -28.480 -16.250  0.00  0.00    -0.506 OA
ATOM    117  HH  THR A   2      -6.816 -29.109 -16.756  0.00  0.00    +0.292 HD
ENDBRANCH 113 116
ENDBRANCH 109 110
ENDBRANCH  97 109
ENDBRANCH  93  97
ENDBRANCH  92  94
BRANCH  92 118
ATOM    118  CB  HIS A   3      -1.347 -22.936 -16.946  0.00  0.00    +0.027 C 
ATOM    119  CG2 HIS A   3      -1.444 -21.423 -16.983  0.00  0.00    +0.002 C 
ATOM    120  CG1 HIS A   3       0.096 -23.361 -17.105  0.00  0.00    +0.002 C 
ENDBRANCH  92 118
ENDBRANCH  88  92
ENDBRANCH  80  89
ENDBRANCH  79  80
ENDBRANCH  78  79
ENDBRANCH  77  78
ENDBRANCH  76  77
ENDBRANCH   1  76
TORSDOF 50
REMARK  Name = ../refined-set-2016/4zhl/4zhl_pocket.pdb
REMARK  247 active torsions:
REMARK  status: ('A' for Active; 'I' for Inactive)
REMARK    1  A    between atoms: _1  and  _5
REMARK    2  A    between atoms: _5  and  _6
REMARK    3  A    between atoms: _5  and  _8
REMARK    4  A    between atoms: _8  and  _9
REMARK    5  A    between atoms: _12  and  _14
REMARK    6  A    between atoms: _14  and  _15
REMARK    7  A    between atoms: _14  and  _17
REMARK    8  A    between atoms: _17  and  _18
REMARK    9  A    between atoms: _21  and  _23
REMARK   10  A    between atoms: _23  and  _24
REMARK   11  A    between atoms: _23  and  _26
REMARK   12  A    between atoms: _26  and  _27
REMARK   13  A    between atoms: _30  and  _32
REMARK   14  A    between atoms: _32  and  _33
REMARK   15  A    between atoms: _32  and  _35
REMARK   16  A    between atoms: _35  and  _36
REMARK   17  A    between atoms: _36  and  _37
REMARK   18  A    between atoms: _37  and  _38
REMARK   19  A    between atoms: _47  and  _49
REMARK   20  A    between atoms: _49  and  _50
REMARK   21  A    between atoms: _49  and  _52
REMARK   22  A    between atoms: _52  and  _53
REMARK   23  A    between atoms: _56  and  _58
REMARK   24  A    between atoms: _58  and  _59
REMARK   25  A    between atoms: _58  and  _61
REMARK   26  A    between atoms: _61  and  _62
REMARK   27  A    between atoms: _67  and  _68
REMARK   28  A    between atoms: _70  and  _72
REMARK   29  A    between atoms: _72  and  _73
REMARK   30  A    between atoms: _72  and  _75
REMARK   31  A    between atoms: _78  and  _80
REMARK   32  A    between atoms: _80  and  _81
REMARK   33  A    between atoms: _80  and  _83
REMARK   34  A    between atoms: _83  and  _84
REMARK   35  A    between atoms: _84  and  _122
REMARK   36  A    between atoms: _85  and  _87
REMARK   37  A    between atoms: _87  and  _88
REMARK   38  A    between atoms: _90  and  _92
REMARK   39  A    between atoms: _92  and  _93
REMARK   40  A    between atoms: _96  and  _98
REMARK   41  A    between atoms: _98  and  _99
REMARK   42  A    between atoms: _98  and  _101
REMARK   43  A    between atoms: _101  and  _102
REMARK   44  A    between atoms: _105  and  _107
REMARK   45  A    between atoms: _107  and  _108
REMARK   46  A    between atoms: _107  and  _110
REMARK   47  A    between atoms: _110  and  _111
REMARK   48  A    between atoms: _116  and  _118
REMARK   49  A    between atoms: _118  and  _119
REMARK   50  A    between atoms: _118  and  _121
REMARK   51  A    between atoms: _121  and  _122
REMARK   52  A    between atoms: _123  and  _125
REMARK   53  A    between atoms: _125  and  _126
REMARK   54  A    between atoms: _125  and  _128
REMARK   55  A    between atoms: _128  and  _129
REMARK   56  A    between atoms: _135  and  _137
REMARK   57  A    between atoms: _137  and  _138
REMARK   58  A    between atoms: _137  and  _140
REMARK   59  A    between atoms: _140  and  _141
REMARK   60  A    between atoms: _144  and  _146
REMARK   61  A    between atoms: _146  and  _147
REMARK   62  A    between atoms: _146  and  _149
REMARK   63  A    between atoms: _149  and  _150
REMARK   64  A    between atoms: _153  and  _155
REMARK   65  A    between atoms: _155  and  _156
REMARK   66  A    between atoms: _155  and  _158
REMARK   67  A    between atoms: _158  and  _159
REMARK   68  A    between atoms: _164  and  _165
REMARK   69  A    between atoms: _167  and  _169
REMARK   70  A    between atoms: _169  and  _170
REMARK   71  A    between atoms: _169  and  _172
REMARK   72  A    between atoms: _172  and  _173
REMARK   73  A    between atoms: _178  and  _179
REMARK   74  A    between atoms: _181  and  _183
REMARK   75  A    between atoms: _183  and  _184
REMARK   76  A    between atoms: _183  and  _186
REMARK   77  A    between atoms: _186  and  _187
REMARK   78  A    between atoms: _190  and  _192
REMARK   79  A    between atoms: _192  and  _193
REMARK   80  A    between atoms: _192  and  _195
REMARK   81  A    between atoms: _195  and  _196
REMARK   82  A    between atoms: _201  and  _202
REMARK   83  A    between atoms: _204  and  _206
REMARK   84  A    between atoms: _206  and  _207
REMARK   85  A    between atoms: _206  and  _209
REMARK   86  A    between atoms: _209  and  _210
REMARK   87  A    between atoms: _212  and  _214
REMARK   88  A    between atoms: _214  and  _215
REMARK   89  A    between atoms: _218  and  _220
REMARK   90  A    between atoms: _220  and  _221
REMARK   91  A    between atoms: _220  and  _223
REMARK   92  A    between atoms: _223  and  _224
REMARK   93  A    between atoms: _227  and  _229
REMARK   94  A    between atoms: _229  and  _230
REMARK   95  A    between atoms: _229  and  _232
REMARK   96  A    between atoms: _232  and  _233
REMARK   97  A    between atoms: _236  and  _238
REMARK   98  A    between atoms: _238  and  _239
REMARK   99  A    between atoms: _238  and  _241
REMARK  100  A    between atoms: _241  and  _242
REMARK  101  A    between atoms: _245  and  _247
REMARK  102  A    between atoms: _247  and  _248
REMARK  103  A    between atoms: _251  and  _253
REMARK  104  A    between atoms: _253  and  _254
REMARK  105  A    between atoms: _253  and  _256
REMARK  106  A    between atoms: _256  and  _257
REMARK  107  A    between atoms: _262  and  _263
REMARK  108  A    between atoms: _265  and  _267
REMARK  109  A    between atoms: _267  and  _268
REMARK  110  A    between atoms: _267  and  _270
REMARK  111  A    between atoms: _270  and  _271
REMARK  112  A    between atoms: _276  and  _278
REMARK  113  A    between atoms: _278  and  _279
REMARK  114  A    between atoms: _278  and  _281
REMARK  115  A    between atoms: _281  and  _282
REMARK  116  A    between atoms: _285  and  _287
REMARK  117  A    between atoms: _287  and  _288
REMARK  118  A    between atoms: _287  and  _290
REMARK  119  A    between atoms: _290  and  _291
REMARK  120  A    between atoms: _294  and  _296
REMARK  121  A    between atoms: _296  and  _297
REMARK  122  A    between atoms: _296  and  _299
REMARK  123  A    between atoms: _299  and  _300
REMARK  124  A    between atoms: _306  and  _308
REMARK  125  A    between atoms: _308  and  _309
REMARK  126  A    between atoms: _311  and  _313
REMARK  127  A    between atoms: _313  and  _314
REMARK  128  A    between atoms: _313  and  _316
REMARK  129  A    between atoms: _316  and  _317
REMARK  130  A    between atoms: _317  and  _318
REMARK  131  A    between atoms: _318  and  _319
REMARK  132  A    between atoms: _319  and  _320
REMARK  133  A    between atoms: _324  and  _326
REMARK  134  A    between atoms: _326  and  _327
REMARK  135  A    between atoms: _326  and  _329
REMARK  136  A    between atoms: _329  and  _330
REMARK  137  A    between atoms: _332  and  _334
REMARK  138  A    between atoms: _334  and  _335
REMARK  139  A    between atoms: _334  and  _337
REMARK  140  A    between atoms: _337  and  _338
REMARK  141  A    between atoms: _343  and  _344
REMARK  142  A    between atoms: _346  and  _348
REMARK  143  A    between atoms: _348  and  _349
REMARK  144  A    between atoms: _348  and  _351
REMARK  145  A    between atoms: _354  and  _356
REMARK  146  A    between atoms: _356  and  _357
REMARK  147  A    between atoms: _356  and  _359
REMARK  148  A    between atoms: _359  and  _360
REMARK  149  A    between atoms: _365  and  _366
REMARK  150  A    between atoms: _368  and  _370
REMARK  151  A    between atoms: _370  and  _371
REMARK  152  A    between atoms: _370  and  _373
REMARK  153  A    between atoms: _373  and  _374
REMARK  154  A    between atoms: _379  and  _380
REMARK  155  A    between atoms: _382  and  _384
REMARK  156  A    between atoms: _384  and  _385
REMARK  157  A    between atoms: _384  and  _387
REMARK  158  A    between atoms: _387  and  _388
REMARK  159  A    between atoms: _388  and  _389
REMARK  160  A    between atoms: _392  and  _394
REMARK  161  A    between atoms: _394  and  _395
REMARK  162  A    between atoms: _398  and  _400
REMARK  163  A    between atoms: _400  and  _401
REMARK  164  A    between atoms: _404  and  _406
REMARK  165  A    between atoms: _406  and  _407
REMARK  166  A    between atoms: _406  and  _409
REMARK  167  A    between atoms: _409  and  _410
REMARK  168  A    between atoms: _413  and  _415
REMARK  169  A    between atoms: _415  and  _416
REMARK  170  A    between atoms: _415  and  _418
REMARK  171  A    between atoms: _418  and  _419
REMARK  172  A    between atoms: _422  and  _424
REMARK  173  A    between atoms: _424  and  _425
REMARK  174  A    between atoms: _424  and  _427
REMARK  175  A    between atoms: _427  and  _428
REMARK  176  A    between atoms: _430  and  _432
REMARK  177  A    between atoms: _432  and  _433
REMARK  178  A    between atoms: _432  and  _435
REMARK  179  A    between atoms: _435  and  _436
REMARK  180  A    between atoms: _436  and  _546
REMARK  181  A    between atoms: _437  and  _439
REMARK  182  A    between atoms: _439  and  _440
REMARK  183  A    between atoms: _439  and  _442
REMARK  184  A    between atoms: _442  and  _443
REMARK  185  A    between atoms: _443  and  _444
REMARK  186  A    between atoms: _449  and  _451
REMARK  187  A    between atoms: _451  and  _452
REMARK  188  A    between atoms: _454  and  _456
REMARK  189  A    between atoms: _456  and  _457
REMARK  190  A    between atoms: _456  and  _459
REMARK  191  A    between atoms: _459  and  _460
REMARK  192  A    between atoms: _463  and  _465
REMARK  193  A    between atoms: _465  and  _466
REMARK  194  A    between atoms: _465  and  _468
REMARK  195  A    between atoms: _468  and  _469
REMARK  196  A    between atoms: _471  and  _473
REMARK  197  A    between atoms: _473  and  _474
REMARK  198  A    between atoms: _476  and  _478
REMARK  199  A    between atoms: _478  and  _479
REMARK  200  A    between atoms: _481  and  _483
REMARK  201  A    between atoms: _483  and  _484
REMARK  202  A    between atoms: _483  and  _486
REMARK  203  A    between atoms: _489  and  _491
REMARK  204  A    between atoms: _491  and  _492
REMARK  205  A    between atoms: _491  and  _494
REMARK  206  A    between atoms: _494  and  _495
REMARK  207  A    between atoms: _497  and  _499
REMARK  208  A    between atoms: _499  and  _500
REMARK  209  A    between atoms: _499  and  _502
REMARK  210  A    between atoms: _502  and  _503
REMARK  211  A    between atoms: _513  and  _515
REMARK  212  A    between atoms: _515  and  _516
REMARK  213  A    between atoms: _518  and  _520
REMARK  214  A    between atoms: _520  and  _521
REMARK  215  A    between atoms: _520  and  _523
REMARK  216  A    between atoms: _523  and  _524
REMARK  217  A    between atoms: _524  and  _525
REMARK  218  A    between atoms: _525  and  _526
REMARK  219  A    between atoms: _535  and  _537
REMARK  220  A    between atoms: _537  and  _538
REMARK  221  A    between atoms: _540  and  _542
REMARK  222  A    between atoms: _542  and  _543
REMARK  223  A    between atoms: _542  and  _545
REMARK  224  A    between atoms: _547  and  _549
REMARK  225  A    between atoms: _549  and  _550
REMARK  226  A    between atoms: _553  and  _555
REMARK  227  A    between atoms: _555  and  _556
REMARK  228  A    between atoms: _555  and  _558
REMARK  229  A    between atoms: _558  and  _559
REMARK  230  A    between atoms: _562  and  _564
REMARK  231  A    between atoms: _564  and  _565
REMARK  232  A    between atoms: _564  and  _567
REMARK  233  A    between atoms: _567  and  _568
REMARK  234  A    between atoms: _568  and  _569
REMARK  235  A    between atoms: _569  and  _570
REMARK  236  A    between atoms: _570  and  _571
REMARK  237  A    between atoms: _576  and  _577
REMARK  238  A    between atoms: _582  and  _584
REMARK  239  A    between atoms: _584  and  _585
REMARK  240  A    between atoms: _587  and  _589
REMARK  241  A    between atoms: _589  and  _590
REMARK  242  A    between atoms: _589  and  _592
REMARK  243  A    between atoms: _595  and  _597
REMARK  244  A    between atoms: _597  and  _598
REMARK  245  A    between atoms: _597  and  _600
REMARK  246  A    between atoms: _600  and  _601
REMARK  247  A    between atoms: _606  and  _607
REMARK                            x       y       z     vdW  Elec       q    Type
REMARK                         _______ _______ _______ _____ _____    ______ ____
ROOT
ATOM      1  CG  TYR A   1       1.068 -19.633 -11.889  0.00  0.00    -0.020 A 
ATOM      2  CD2 TYR A   1       2.339 -19.064 -11.862  0.00  0.00    -0.001 A 
ATOM      3  CE2 TYR A   1       3.161 -19.118 -12.975  0.00  0.00    +0.036 A 
ATOM      4  CZ  TYR A   1       2.702 -19.719 -14.133  0.00  0.00    +0.134 A 
ATOM      5  CE1 TYR A   1       1.444 -20.271 -14.190  0.00  0.00    +0.036 A 
ATOM      6  CD1 TYR A   1       0.630 -20.217 -13.072  0.00  0.00    -0.001 A 
ENDROOT
BRANCH   4   7
ATOM      7  OH  TYR A   1       3.494 -19.771 -15.230  0.00  0.00    -0.506 OA
ATOM      8  HH  TYR A   1       3.725 -18.851 -15.513  0.00  0.00    +0.292 HD
ENDBRANCH   4   7
BRANCH   1   9
ATOM      9  CB  TYR A   1       0.172 -19.553 -10.711  0.00  0.00    +0.051 C 
BRANCH   9  10
ATOM     10  CA  TYR A   1      -0.798 -18.390 -10.855  0.00  0.00    +0.137 C 
BRANCH  10  11
ATOM     11  N   TYR A   1      -0.080 -17.129 -10.767  0.00  0.00    -0.239 NA
ATOM     12  H   TYR A   1       0.497 -16.929  -9.925  0.00  0.00    +0.142 HD
ENDBRANCH  10  11
BRANCH  10  13
ATOM     13  C   TYR A   1      -1.907 -18.527  -9.850  0.00  0.00    +0.224 C 
ATOM     14  O   TYR A   1      -1.848 -17.992  -8.733  0.00  0.00    -0.287 OA
ENDBRANCH  10  13
ENDBRANCH   9  10
ENDBRANCH   1   9
TORSDOF 5
REMARK  Name = ../refined-set-2016/4zhl/4zhl_pocket.pdb
REMARK  247 active torsions:
REMARK  status: ('A' for Active; 'I' for Inactive)
REMARK    1  A    between atoms: _1  and  _5
REMARK    2  A    between atoms: _5  and  _6
REMARK    3  A    between atoms: _5  and  _8
REMARK    4  A    between atoms: _8  and  _9
REMARK    5  A    between atoms: _12  and  _14
REMARK    6  A    between atoms: _14  and  _15
REMARK    7  A    between atoms: _14  and  _17
REMARK    8  A    between atoms: _17  and  _18
REMARK    9  A    between atoms: _21  and  _23
REMARK   10  A    between atoms: _23  and  _24
REMARK   11  A    between atoms: _23  and  _26
REMARK   12  A    between atoms: _26  and  _27
REMARK   13  A    between atoms: _30  and  _32
REMARK   14  A    between atoms: _32  and  _33
REMARK   15  A    between atoms: _32  and  _35
REMARK   16  A    between atoms: _35  and  _36
REMARK   17  A    between atoms: _36  and  _37
REMARK   18  A    between atoms: _37  and  _38
REMARK   19  A    between atoms: _47  and  _49
REMARK   20  A    between atoms: _49  and  _50
REMARK   21  A    between atoms: _49  and  _52
REMARK   22  A    between atoms: _52  and  _53
REMARK   23  A    between atoms: _56  and  _58
REMARK   24  A    between atoms: _58  and  _59
REMARK   25  A    between atoms: _58  and  _61
REMARK   26  A    between atoms: _61  and  _62
REMARK   27  A    between atoms: _67  and  _68
REMARK   28  A    between atoms: _70  and  _72
REMARK   29  A    between atoms: _72  and  _73
REMARK   30  A    between atoms: _72  and  _75
REMARK   31  A    between atoms: _78  and  _80
REMARK   32  A    between atoms: _80  and  _81
REMARK   33  A    between atoms: _80  and  _83
REMARK   34  A    between atoms: _83  and  _84
REMARK   35  A    between atoms: _84  and  _122
REMARK   36  A    between atoms: _85  and  _87
REMARK   37  A    between atoms: _87  and  _88
REMARK   38  A    between atoms: _90  and  _92
REMARK   39  A    between atoms: _92  and  _93
REMARK   40  A    between atoms: _96  and  _98
REMARK   41  A    between atoms: _98  and  _99
REMARK   42  A    between atoms: _98  and  _101
REMARK   43  A    between atoms: _101  and  _102
REMARK   44  A    between atoms: _105  and  _107
REMARK   45  A    between atoms: _107  and  _108
REMARK   46  A    between atoms: _107  and  _110
REMARK   47  A    between atoms: _110  and  _111
REMARK   48  A    between atoms: _116  and  _118
REMARK   49  A    between atoms: _118  and  _119
REMARK   50  A    between atoms: _118  and  _121
REMARK   51  A    between atoms: _121  and  _122
REMARK   52  A    between atoms: _123  and  _125
REMARK   53  A    between atoms: _125  and  _126
REMARK   54  A    between atoms: _125  and  _128
REMARK   55  A    between atoms: _128  and  _129
REMARK   56  A    between atoms: _135  and  _137
REMARK   57  A    between atoms: _137  and  _138
REMARK   58  A    between atoms: _137  and  _140
REMARK   59  A    between atoms: _140  and  _141
REMARK   60  A    between atoms: _144  and  _146
REMARK   61  A    between atoms: _146  and  _147
REMARK   62  A    between atoms: _146  and  _149
REMARK   63  A    between atoms: _149  and  _150
REMARK   64  A    between atoms: _153  and  _155
REMARK   65  A    between atoms: _155  and  _156
REMARK   66  A    between atoms: _155  and  _158
REMARK   67  A    between atoms: _158  and  _159
REMARK   68  A    between atoms: _164  and  _165
REMARK   69  A    between atoms: _167  and  _169
REMARK   70  A    between atoms: _169  and  _170
REMARK   71  A    between atoms: _169  and  _172
REMARK   72  A    between atoms: _172  and  _173
REMARK   73  A    between atoms: _178  and  _179
REMARK   74  A    between atoms: _181  and  _183
REMARK   75  A    between atoms: _183  and  _184
REMARK   76  A    between atoms: _183  and  _186
REMARK   77  A    between atoms: _186  and  _187
REMARK   78  A    between atoms: _190  and  _192
REMARK   79  A    between atoms: _192  and  _193
REMARK   80  A    between atoms: _192  and  _195
REMARK   81  A    between atoms: _195  and  _196
REMARK   82  A    between atoms: _201  and  _202
REMARK   83  A    between atoms: _204  and  _206
REMARK   84  A    between atoms: _206  and  _207
REMARK   85  A    between atoms: _206  and  _209
REMARK   86  A    between atoms: _209  and  _210
REMARK   87  A    between atoms: _212  and  _214
REMARK   88  A    between atoms: _214  and  _215
REMARK   89  A    between atoms: _218  and  _220
REMARK   90  A    between atoms: _220  and  _221
REMARK   91  A    between atoms: _220  and  _223
REMARK   92  A    between atoms: _223  and  _224
REMARK   93  A    between atoms: _227  and  _229
REMARK   94  A    between atoms: _229  and  _230
REMARK   95  A    between atoms: _229  and  _232
REMARK   96  A    between atoms: _232  and  _233
REMARK   97  A    between atoms: _236  and  _238
REMARK   98  A    between atoms: _238  and  _239
REMARK   99  A    between atoms: _238  and  _241
REMARK  100  A    between atoms: _241  and  _242
REMARK  101  A    between atoms: _245  and  _247
REMARK  102  A    between atoms: _247  and  _248
REMARK  103  A    between atoms: _251  and  _253
REMARK  104  A    between atoms: _253  and  _254
REMARK  105  A    between atoms: _253  and  _256
REMARK  106  A    between atoms: _256  and  _257
REMARK  107  A    between atoms: _262  and  _263
REMARK  108  A    between atoms: _265  and  _267
REMARK  109  A    between atoms: _267  and  _268
REMARK  110  A    between atoms: _267  and  _270
REMARK  111  A    between atoms: _270  and  _271
REMARK  112  A    between atoms: _276  and  _278
REMARK  113  A    between atoms: _278  and  _279
REMARK  114  A    between atoms: _278  and  _281
REMARK  115  A    between atoms: _281  and  _282
REMARK  116  A    between atoms: _285  and  _287
REMARK  117  A    between atoms: _287  and  _288
REMARK  118  A    between atoms: _287  and  _290
REMARK  119  A    between atoms: _290  and  _291
REMARK  120  A    between atoms: _294  and  _296
REMARK  121  A    between atoms: _296  and  _297
REMARK  122  A    between atoms: _296  and  _299
REMARK  123  A    between atoms: _299  and  _300
REMARK  124  A    between atoms: _306  and  _308
REMARK  125  A    between atoms: _308  and  _309
REMARK  126  A    between atoms: _311  and  _313
REMARK  127  A    between atoms: _313  and  _314
REMARK  128  A    between atoms: _313  and  _316
REMARK  129  A    between atoms: _316  and  _317
REMARK  130  A    between atoms: _317  and  _318
REMARK  131  A    between atoms: _318  and  _319
REMARK  132  A    between atoms: _319  and  _320
REMARK  133  A    between atoms: _324  and  _326
REMARK  134  A    between atoms: _326  and  _327
REMARK  135  A    between atoms: _326  and  _329
REMARK  136  A    between atoms: _329  and  _330
REMARK  137  A    between atoms: _332  and  _334
REMARK  138  A    between atoms: _334  and  _335
REMARK  139  A    between atoms: _334  and  _337
REMARK  140  A    between atoms: _337  and  _338
REMARK  141  A    between atoms: _343  and  _344
REMARK  142  A    between atoms: _346  and  _348
REMARK  143  A    between atoms: _348  and  _349
REMARK  144  A    between atoms: _348  and  _351
REMARK  145  A    between atoms: _354  and  _356
REMARK  146  A    between atoms: _356  and  _357
REMARK  147  A    between atoms: _356  and  _359
REMARK  148  A    between atoms: _359  and  _360
REMARK  149  A    between atoms: _365  and  _366
REMARK  150  A    between atoms: _368  and  _370
REMARK  151  A    between atoms: _370  and  _371
REMARK  152  A    between atoms: _370  and  _373
REMARK  153  A    between atoms: _373  and  _374
REMARK  154  A    between atoms: _379  and  _380
REMARK  155  A    between atoms: _382  and  _384
REMARK  156  A    between atoms: _384  and  _385
REMARK  157  A    between atoms: _384  and  _387
REMARK  158  A    between atoms: _387  and  _388
REMARK  159  A    between atoms: _388  and  _389
REMARK  160  A    between atoms: _392  and  _394
REMARK  161  A    between atoms: _394  and  _395
REMARK  162  A    between atoms: _398  and  _400
REMARK  163  A    between atoms: _400  and  _401
REMARK  164  A    between atoms: _404  and  _406
REMARK  165  A    between atoms: _406  and  _407
REMARK  166  A    between atoms: _406  and  _409
REMARK  167  A    between atoms: _409  and  _410
REMARK  168  A    between atoms: _413  and  _415
REMARK  169  A    between atoms: _415  and  _416
REMARK  170  A    between atoms: _415  and  _418
REMARK  171  A    between atoms: _418  and  _419
REMARK  172  A    between atoms: _422  and  _424
REMARK  173  A    between atoms: _424  and  _425
REMARK  174  A    between atoms: _424  and  _427
REMARK  175  A    between atoms: _427  and  _428
REMARK  176  A    between atoms: _430  and  _432
REMARK  177  A    between atoms: _432  and  _433
REMARK  178  A    between atoms: _432  and  _435
REMARK  179  A    between atoms: _435  and  _436
REMARK  180  A    between atoms: _436  and  _546
REMARK  181  A    between atoms: _437  and  _439
REMARK  182  A    between atoms: _439  and  _440
REMARK  183  A    between atoms: _439  and  _442
REMARK  184  A    between atoms: _442  and  _443
REMARK  185  A    between atoms: _443  and  _444
REMARK  186  A    between atoms: _449  and  _451
REMARK  187  A    between atoms: _451  and  _452
REMARK  188  A    between atoms: _454  and  _456
REMARK  189  A    between atoms: _456  and  _457
REMARK  190  A    between atoms: _456  and  _459
REMARK  191  A    between atoms: _459  and  _460
REMARK  192  A    between atoms: _463  and  _465
REMARK  193  A    between atoms: _465  and  _466
REMARK  194  A    between atoms: _465  and  _468
REMARK  195  A    between atoms: _468  and  _469
REMARK  196  A    between atoms: _471  and  _473
REMARK  197  A    between atoms: _473  and  _474
REMARK  198  A    between atoms: _476  and  _478
REMARK  199  A    between atoms: _478  and  _479
REMARK  200  A    between atoms: _481  and  _483
REMARK  201  A    between atoms: _483  and  _484
REMARK  202  A    between atoms: _483  and  _486
REMARK  203  A    between atoms: _489  and  _491
REMARK  204  A    between atoms: _491  and  _492
REMARK  205  A    between atoms: _491  and  _494
REMARK  206  A    between atoms: _494  and  _495
REMARK  207  A    between atoms: _497  and  _499
REMARK  208  A    between atoms: _499  and  _500
REMARK  209  A    between atoms: _499  and  _502
REMARK  210  A    between atoms: _502  and  _503
REMARK  211  A    between atoms: _513  and  _515
REMARK  212  A    between atoms: _515  and  _516
REMARK  213  A    between atoms: _518  and  _520
REMARK  214  A    between atoms: _520  and  _521
REMARK  215  A    between atoms: _520  and  _523
REMARK  216  A    between atoms: _523  and  _524
REMARK  217  A    between atoms: _524  and  _525
REMARK  218  A    between atoms: _525  and  _526
REMARK  219  A    between atoms: _535  and  _537
REMARK  220  A    between atoms: _537  and  _538
REMARK  221  A    between atoms: _540  and  _542
REMARK  222  A    between atoms: _542  and  _543
REMARK  223  A    between atoms: _542  and  _545
REMARK  224  A    between atoms: _547  and  _549
REMARK  225  A    between atoms: _549  and  _550
REMARK  226  A    between atoms: _553  and  _555
REMARK  227  A    between atoms: _555  and  _556
REMARK  228  A    between atoms: _555  and  _558
REMARK  229  A    between atoms: _558  and  _559
REMARK  230  A    between atoms: _562  and  _564
REMARK  231  A    between atoms: _564  and  _565
REMARK  232  A    between atoms: _564  and  _567
REMARK  233  A    between atoms: _567  and  _568
REMARK  234  A    between atoms: _568  and  _569
REMARK  235  A    between atoms: _569  and  _570
REMARK  236  A    between atoms: _570  and  _571
REMARK  237  A    between atoms: _576  and  _577
REMARK  238  A    between atoms: _582  and  _584
REMARK  239  A    between atoms: _584  and  _585
REMARK  240  A    between atoms: _587  and  _589
REMARK  241  A    between atoms: _589  and  _590
REMARK  242  A    between atoms: _589  and  _592
REMARK  243  A    between atoms: _595  and  _597
REMARK  244  A    between atoms: _597  and  _598
REMARK  245  A    between atoms: _597  and  _600
REMARK  246  A    between atoms: _600  and  _601
REMARK  247  A    between atoms: _606  and  _607
REMARK                            x       y       z     vdW  Elec       q    Type
REMARK                         _______ _______ _______ _____ _____    ______ ____
ROOT
ATOM      1  CA  LEU A   1     -12.915 -25.032 -17.408  0.00  0.00    +0.133 C 
ENDROOT
BRANCH   1   2
ATOM      2  N   LEU A   1     -14.110 -25.761 -17.025  0.00  0.00    -0.239 NA
ATOM      3  H   LEU A   1     -14.725 -26.135 -17.776  0.00  0.00    +0.142 HD
ENDBRANCH   1   2
BRANCH   1   4
ATOM      4  C   LEU A   1     -13.021 -23.524 -17.204  0.00  0.00    +0.224 C 
ATOM      5  O   LEU A   1     -12.101 -22.890 -16.661  0.00  0.00    -0.287 OA
ENDBRANCH   1   4
BRANCH   1   6
ATOM      6  CB  LEU A   1     -12.599 -25.332 -18.897  0.00  0.00    +0.025 C 
BRANCH   6   7
ATOM      7  CG  LEU A   1     -11.300 -24.799 -19.493  0.00  0.00    +0.002 C 
ATOM      8  CD2 LEU A   1     -10.127 -25.385 -18.730  0.00  0.00    +0.000 C 
ATOM      9  CD1 LEU A   1     -11.199 -25.090 -21.002  0.00  0.00    +0.000 C 
ENDBRANCH   6   7
ENDBRANCH   1   6
TORSDOF 4
REMARK  Name = ../refined-set-2016/4zhl/4zhl_pocket.pdb
REMARK  247 active torsions:
REMARK  status: ('A' for Active; 'I' for Inactive)
REMARK    1  A    between atoms: _1  and  _5
REMARK    2  A    between atoms: _5  and  _6
REMARK    3  A    between atoms: _5  and  _8
REMARK    4  A    between atoms: _8  and  _9
REMARK    5  A    between atoms: _12  and  _14
REMARK    6  A    between atoms: _14  and  _15
REMARK    7  A    between atoms: _14  and  _17
REMARK    8  A    between atoms: _17  and  _18
REMARK    9  A    between atoms: _21  and  _23
REMARK   10  A    between atoms: _23  and  _24
REMARK   11  A    between atoms: _23  and  _26
REMARK   12  A    between atoms: _26  and  _27
REMARK   13  A    between atoms: _30  and  _32
REMARK   14  A    between atoms: _32  and  _33
REMARK   15  A    between atoms: _32  and  _35
REMARK   16  A    between atoms: _35  and  _36
REMARK   17  A    between atoms: _36  and  _37
REMARK   18  A    between atoms: _37  and  _38
REMARK   19  A    between atoms: _47  and  _49
REMARK   20  A    between atoms: _49  and  _50
REMARK   21  A    between atoms: _49  and  _52
REMARK   22  A    between atoms: _52  and  _53
REMARK   23  A    between atoms: _56  and  _58
REMARK   24  A    between atoms: _58  and  _59
REMARK   25  A    between atoms: _58  and  _61
REMARK   26  A    between atoms: _61  and  _62
REMARK   27  A    between atoms: _67  and  _68
REMARK   28  A    between atoms: _70  and  _72
REMARK   29  A    between atoms: _72  and  _73
REMARK   30  A    between atoms: _72  and  _75
REMARK   31  A    between atoms: _78  and  _80
REMARK   32  A    between atoms: _80  and  _81
REMARK   33  A    between atoms: _80  and  _83
REMARK   34  A    between atoms: _83  and  _84
REMARK   35  A    between atoms: _84  and  _122
REMARK   36  A    between atoms: _85  and  _87
REMARK   37  A    between atoms: _87  and  _88
REMARK   38  A    between atoms: _90  and  _92
REMARK   39  A    between atoms: _92  and  _93
REMARK   40  A    between atoms: _96  and  _98
REMARK   41  A    between atoms: _98  and  _99
REMARK   42  A    between atoms: _98  and  _101
REMARK   43  A    between atoms: _101  and  _102
REMARK   44  A    between atoms: _105  and  _107
REMARK   45  A    between atoms: _107  and  _108
REMARK   46  A    between atoms: _107  and  _110
REMARK   47  A    between atoms: _110  and  _111
REMARK   48  A    between atoms: _116  and  _118
REMARK   49  A    between atoms: _118  and  _119
REMARK   50  A    between atoms: _118  and  _121
REMARK   51  A    between atoms: _121  and  _122
REMARK   52  A    between atoms: _123  and  _125
REMARK   53  A    between atoms: _125  and  _126
REMARK   54  A    between atoms: _125  and  _128
REMARK   55  A    between atoms: _128  and  _129
REMARK   56  A    between atoms: _135  and  _137
REMARK   57  A    between atoms: _137  and  _138
REMARK   58  A    between atoms: _137  and  _140
REMARK   59  A    between atoms: _140  and  _141
REMARK   60  A    between atoms: _144  and  _146
REMARK   61  A    between atoms: _146  and  _147
REMARK   62  A    between atoms: _146  and  _149
REMARK   63  A    between atoms: _149  and  _150
REMARK   64  A    between atoms: _153  and  _155
REMARK   65  A    between atoms: _155  and  _156
REMARK   66  A    between atoms: _155  and  _158
REMARK   67  A    between atoms: _158  and  _159
REMARK   68  A    between atoms: _164  and  _165
REMARK   69  A    between atoms: _167  and  _169
REMARK   70  A    between atoms: _169  and  _170
REMARK   71  A    between atoms: _169  and  _172
REMARK   72  A    between atoms: _172  and  _173
REMARK   73  A    between atoms: _178  and  _179
REMARK   74  A    between atoms: _181  and  _183
REMARK   75  A    between atoms: _183  and  _184
REMARK   76  A    between atoms: _183  and  _186
REMARK   77  A    between atoms: _186  and  _187
REMARK   78  A    between atoms: _190  and  _192
REMARK   79  A    between atoms: _192  and  _193
REMARK   80  A    between atoms: _192  and  _195
REMARK   81  A    between atoms: _195  and  _196
REMARK   82  A    between atoms: _201  and  _202
REMARK   83  A    between atoms: _204  and  _206
REMARK   84  A    between atoms: _206  and  _207
REMARK   85  A    between atoms: _206  and  _209
REMARK   86  A    between atoms: _209  and  _210
REMARK   87  A    between atoms: _212  and  _214
REMARK   88  A    between atoms: _214  and  _215
REMARK   89  A    between atoms: _218  and  _220
REMARK   90  A    between atoms: _220  and  _221
REMARK   91  A    between atoms: _220  and  _223
REMARK   92  A    between atoms: _223  and  _224
REMARK   93  A    between atoms: _227  and  _229
REMARK   94  A    between atoms: _229  and  _230
REMARK   95  A    between atoms: _229  and  _232
REMARK   96  A    between atoms: _232  and  _233
REMARK   97  A    between atoms: _236  and  _238
REMARK   98  A    between atoms: _238  and  _239
REMARK   99  A    between atoms: _238  and  _241
REMARK  100  A    between atoms: _241  and  _242
REMARK  101  A    between atoms: _245  and  _247
REMARK  102  A    between atoms: _247  and  _248
REMARK  103  A    between atoms: _251  and  _253
REMARK  104  A    between atoms: _253  and  _254
REMARK  105  A    between atoms: _253  and  _256
REMARK  106  A    between atoms: _256  and  _257
REMARK  107  A    between atoms: _262  and  _263
REMARK  108  A    between atoms: _265  and  _267
REMARK  109  A    between atoms: _267  and  _268
REMARK  110  A    between atoms: _267  and  _270
REMARK  111  A    between atoms: _270  and  _271
REMARK  112  A    between atoms: _276  and  _278
REMARK  113  A    between atoms: _278  and  _279
REMARK  114  A    between atoms: _278  and  _281
REMARK  115  A    between atoms: _281  and  _282
REMARK  116  A    between atoms: _285  and  _287
REMARK  117  A    between atoms: _287  and  _288
REMARK  118  A    between atoms: _287  and  _290
REMARK  119  A    between atoms: _290  and  _291
REMARK  120  A    between atoms: _294  and  _296
REMARK  121  A    between atoms: _296  and  _297
REMARK  122  A    between atoms: _296  and  _299
REMARK  123  A    between atoms: _299  and  _300
REMARK  124  A    between atoms: _306  and  _308
REMARK  125  A    between atoms: _308  and  _309
REMARK  126  A    between atoms: _311  and  _313
REMARK  127  A    between atoms: _313  and  _314
REMARK  128  A    between atoms: _313  and  _316
REMARK  129  A    between atoms: _316  and  _317
REMARK  130  A    between atoms: _317  and  _318
REMARK  131  A    between atoms: _318  and  _319
REMARK  132  A    between atoms: _319  and  _320
REMARK  133  A    between atoms: _324  and  _326
REMARK  134  A    between atoms: _326  and  _327
REMARK  135  A    between atoms: _326  and  _329
REMARK  136  A    between atoms: _329  and  _330
REMARK  137  A    between atoms: _332  and  _334
REMARK  138  A    between atoms: _334  and  _335
REMARK  139  A    between atoms: _334  and  _337
REMARK  140  A    between atoms: _337  and  _338
REMARK  141  A    between atoms: _343  and  _344
REMARK  142  A    between atoms: _346  and  _348
REMARK  143  A    between atoms: _348  and  _349
REMARK  144  A    between atoms: _348  and  _351
REMARK  145  A    between atoms: _354  and  _356
REMARK  146  A    between atoms: _356  and  _357
REMARK  147  A    between atoms: _356  and  _359
REMARK  148  A    between atoms: _359  and  _360
REMARK  149  A    between atoms: _365  and  _366
REMARK  150  A    between atoms: _368  and  _370
REMARK  151  A    between atoms: _370  and  _371
REMARK  152  A    between atoms: _370  and  _373
REMARK  153  A    between atoms: _373  and  _374
REMARK  154  A    between atoms: _379  and  _380
REMARK  155  A    between atoms: _382  and  _384
REMARK  156  A    between atoms: _384  and  _385
REMARK  157  A    between atoms: _384  and  _387
REMARK  158  A    between atoms: _387  and  _388
REMARK  159  A    between atoms: _388  and  _389
REMARK  160  A    between atoms: _392  and  _394
REMARK  161  A    between atoms: _394  and  _395
REMARK  162  A    between atoms: _398  and  _400
REMARK  163  A    between atoms: _400  and  _401
REMARK  164  A    between atoms: _404  and  _406
REMARK  165  A    between atoms: _406  and  _407
REMARK  166  A    between atoms: _406  and  _409
REMARK  167  A    between atoms: _409  and  _410
REMARK  168  A    between atoms: _413  and  _415
REMARK  169  A    between atoms: _415  and  _416
REMARK  170  A    between atoms: _415  and  _418
REMARK  171  A    between atoms: _418  and  _419
REMARK  172  A    between atoms: _422  and  _424
REMARK  173  A    between atoms: _424  and  _425
REMARK  174  A    between atoms: _424  and  _427
REMARK  175  A    between atoms: _427  and  _428
REMARK  176  A    between atoms: _430  and  _432
REMARK  177  A    between atoms: _432  and  _433
REMARK  178  A    between atoms: _432  and  _435
REMARK  179  A    between atoms: _435  and  _436
REMARK  180  A    between atoms: _436  and  _546
REMARK  181  A    between atoms: _437  and  _439
REMARK  182  A    between atoms: _439  and  _440
REMARK  183  A    between atoms: _439  and  _442
REMARK  184  A    between atoms: _442  and  _443
REMARK  185  A    between atoms: _443  and  _444
REMARK  186  A    between atoms: _449  and  _451
REMARK  187  A    between atoms: _451  and  _452
REMARK  188  A    between atoms: _454  and  _456
REMARK  189  A    between atoms: _456  and  _457
REMARK  190  A    between atoms: _456  and  _459
REMARK  191  A    between atoms: _459  and  _460
REMARK  192  A    between atoms: _463  and  _465
REMARK  193  A    between atoms: _465  and  _466
REMARK  194  A    between atoms: _465  and  _468
REMARK  195  A    between atoms: _468  and  _469
REMARK  196  A    between atoms: _471  and  _473
REMARK  197  A    between atoms: _473  and  _474
REMARK  198  A    between atoms: _476  and  _478
REMARK  199  A    between atoms: _478  and  _479
REMARK  200  A    between atoms: _481  and  _483
REMARK  201  A    between atoms: _483  and  _484
REMARK  202  A    between atoms: _483  and  _486
REMARK  203  A    between atoms: _489  and  _491
REMARK  204  A    between atoms: _491  and  _492
REMARK  205  A    between atoms: _491  and  _494
REMARK  206  A    between atoms: _494  and  _495
REMARK  207  A    between atoms: _497  and  _499
REMARK  208  A    between atoms: _499  and  _500
REMARK  209  A    between atoms: _499  and  _502
REMARK  210  A    between atoms: _502  and  _503
REMARK  211  A    between atoms: _513  and  _515
REMARK  212  A    between atoms: _515  and  _516
REMARK  213  A    between atoms: _518  and  _520
REMARK  214  A    between atoms: _520  and  _521
REMARK  215  A    between atoms: _520  and  _523
REMARK  216  A    between atoms: _523  and  _524
REMARK  217  A    between atoms: _524  and  _525
REMARK  218  A    between atoms: _525  and  _526
REMARK  219  A    between atoms: _535  and  _537
REMARK  220  A    between atoms: _537  and  _538
REMARK  221  A    between atoms: _540  and  _542
REMARK  222  A    between atoms: _542  and  _543
REMARK  223  A    between atoms: _542  and  _545
REMARK  224  A    between atoms: _547  and  _549
REMARK  225  A    between atoms: _549  and  _550
REMARK  226  A    between atoms: _553  and  _555
REMARK  227  A    between atoms: _555  and  _556
REMARK  228  A    between atoms: _555  and  _558
REMARK  229  A    between atoms: _558  and  _559
REMARK  230  A    between atoms: _562  and  _564
REMARK  231  A    between atoms: _564  and  _565
REMARK  232  A    between atoms: _564  and  _567
REMARK  233  A    between atoms: _567  and  _568
REMARK  234  A    between atoms: _568  and  _569
REMARK  235  A    between atoms: _569  and  _570
REMARK  236  A    between atoms: _570  and  _571
REMARK  237  A    between atoms: _576  and  _577
REMARK  238  A    between atoms: _582  and  _584
REMARK  239  A    between atoms: _584  and  _585
REMARK  240  A    between atoms: _587  and  _589
REMARK  241  A    between atoms: _589  and  _590
REMARK  242  A    between atoms: _589  and  _592
REMARK  243  A    between atoms: _595  and  _597
REMARK  244  A    between atoms: _597  and  _598
REMARK  245  A    between atoms: _597  and  _600
REMARK  246  A    between atoms: _600  and  _601
REMARK  247  A    between atoms: _606  and  _607
REMARK                            x       y       z     vdW  Elec       q    Type
REMARK                         _______ _______ _______ _____ _____    ______ ____
ROOT
ATOM      1  CA  THR A   5      13.938 -31.721 -29.457  0.00  0.00    +0.176 C 
ENDROOT
BRANCH   1   2
ATOM      2  C   THR A   5      12.538 -32.337 -29.570  0.00  0.00    +0.243 C 
ATOM      3  N   LEU A   6      12.341 -33.541 -29.022  0.00  0.00    -0.297 N 
ATOM      4  H   LEU A   6      13.152 -34.040 -28.603  0.00  0.00    +0.150 HD
ATOM      5  O   THR A   5      11.665 -31.741 -30.183  0.00  0.00    -0.273 OA
BRANCH   3   6
ATOM      6  CA  LEU A   6      11.023 -34.184 -28.990  0.00  0.00    +0.149 C 
BRANCH   6   7
ATOM      7  C   LEU A   6      10.319 -34.329 -27.628  0.00  0.00    +0.241 C 
ATOM      8  N   ALA A   7      11.066 -34.430 -26.542  0.00  0.00    -0.297 N 
ATOM      9  H   ALA A   7      12.088 -34.258 -26.626  0.00  0.00    +0.150 HD
ATOM     10  O   LEU A   6       9.122 -34.345 -27.583  0.00  0.00    -0.273 OA
BRANCH   8  11
ATOM     11  CA  ALA A   7      10.526 -34.770 -25.235  0.00  0.00    +0.149 C 
ATOM     12  CB  ALA A   7      10.810 -36.207 -24.908  0.00  0.00    +0.031 C 
BRANCH  11  13
ATOM     13  C   ALA A   7      11.067 -33.878 -24.135  0.00  0.00    +0.241 C 
ATOM     14  N   TYR A   8      10.515 -33.989 -22.938  0.00  0.00    -0.297 N 
ATOM     15  H   TYR A   8       9.726 -34.656 -22.820  0.00  0.00    +0.150 HD
ATOM     16  O   ALA A   7      11.925 -33.087 -24.383  0.00  0.00    -0.273 OA
BRANCH  14  17
ATOM     17  CA  TYR A   8      10.949 -33.235 -21.790  0.00  0.00    +0.153 C 
BRANCH  17  18
ATOM     18  C   TYR A   8      11.557 -34.180 -20.793  0.00  0.00    +0.241 C 
ATOM     19  N   HIS A   9      12.514 -33.720 -20.026  0.00  0.00    -0.298 N 
ATOM     20  H   HIS A   9      12.802 -32.727 -20.141  0.00  0.00    +0.150 HD
ATOM     21  O   TYR A   8      11.166 -35.298 -20.710  0.00  0.00    -0.273 OA
BRANCH  19  22
ATOM     22  CA  HIS A   9      13.197 -34.522 -19.021  0.00  0.00    +0.143 C 
BRANCH  22  23
ATOM     23  C   HIS A   9      13.026 -33.868 -17.666  0.00  0.00    +0.227 C 
ATOM     24  O   HIS A   9      13.025 -32.641 -17.565  0.00  0.00    -0.286 OA
ENDBRANCH  22  23
BRANCH  22  25
ATOM     25  CB  HIS A   9      14.690 -34.650 -19.374  0.00  0.00    +0.075 C 
BRANCH  25  26
ATOM     26  CG  HIS A   9      14.941 -35.508 -20.570  0.00  0.00    +0.082 A 
ATOM     27  CD2 HIS A   9      15.270 -36.817 -20.672  0.00  0.00    +0.115 A 
ATOM     28  NE2 HIS A   9      15.329 -37.116 -22.011  0.00  0.00    -0.221 NA
ATOM     29  CE1 HIS A   9      15.051 -36.028 -22.709  0.00  0.00    +0.199 A 
ATOM     30  ND1 HIS A   9      14.810 -35.042 -21.862  0.00  0.00    -0.227 NA
ENDBRANCH  25  26
ENDBRANCH  22  25
ENDBRANCH  19  22
ENDBRANCH  17  18
BRANCH  17  31
ATOM     31  CB  TYR A   8       9.773 -32.598 -21.077  0.00  0.00    +0.055 C 
BRANCH  31  32
ATOM     32  CG  TYR A   8       8.923 -31.612 -21.801  0.00  0.00    -0.020 A 
ATOM     33  CD2 TYR A   8       9.287 -30.286 -21.880  0.00  0.00    -0.001 A 
ATOM     34  CE2 TYR A   8       8.493 -29.374 -22.498  0.00  0.00    +0.036 A 
ATOM     35  CZ  TYR A   8       7.326 -29.763 -23.029  0.00  0.00    +0.134 A 
ATOM     36  CE1 TYR A   8       6.924 -31.061 -22.945  0.00  0.00    +0.036 A 
ATOM     37  CD1 TYR A   8       7.718 -31.977 -22.329  0.00  0.00    -0.001 A 
BRANCH  35  38
ATOM     38  OH  TYR A   8       6.547 -28.861 -23.635  0.00  0.00    -0.506 OA
ATOM     39  HH  TYR A   8       6.987 -27.975 -23.607  0.00  0.00    +0.292 HD
ENDBRANCH  35  38
ENDBRANCH  31  32
ENDBRANCH  17  31
ENDBRANCH  14  17
ENDBRANCH  11  13
ENDBRANCH   8  11
ENDBRANCH   6   7
BRANCH   6  40
ATOM     40  CB  LEU A   6      11.098 -35.577 -29.596  0.00  0.00    +0.029 C 
BRANCH  40  41
ATOM     41  CG  LEU A   6      11.110 -35.808 -31.098  0.00  0.00    +0.002 C 
ATOM     42  CD2 LEU A   6      11.498 -37.230 -31.394  0.00  0.00    +0.000 C 
ATOM     43  CD1 LEU A   6      12.069 -34.844 -31.749  0.00  0.00    +0.000 C 
ENDBRANCH  40  41
ENDBRANCH   6  40
ENDBRANCH   3   6
ENDBRANCH   1   2
BRANCH   1  46
ATOM     44  C   ASP A   4      14.113 -31.368 -27.064  0.00  0.00    +0.241 C 
ATOM     45  O   ASP A   4      13.238 -30.563 -27.031  0.00  0.00    -0.273 OA
ATOM     46  N   THR A   5      14.577 -31.894 -28.181  0.00  0.00    -0.295 N 
ATOM     47  H   THR A   5      15.447 -32.461 -28.136  0.00  0.00    +0.150 HD
BRANCH  44  48
ATOM     48  CA  ASP A   4      14.792 -31.776 -25.816  0.00  0.00    +0.160 C 
BRANCH  48  50
ATOM     49  C   ALA A   3      14.043 -30.041 -24.304  0.00  0.00    +0.241 C 
ATOM     50  N   ASP A   4      13.967 -31.272 -24.750  0.00  0.00    -0.297 N 
ATOM     51  H   ASP A   4      13.277 -31.915 -24.312  0.00  0.00    +0.150 HD
ATOM     52  O   ALA A   3      14.726 -29.205 -24.849  0.00  0.00    -0.273 OA
BRANCH  49  53
ATOM     53  CA  ALA A   3      13.162 -29.685 -23.092  0.00  0.00    +0.149 C 
ATOM     54  CB  ALA A   3      12.261 -28.521 -23.421  0.00  0.00    +0.031 C 
BRANCH  53  57
ATOM     55  C   SER A   2      14.104 -30.162 -20.929  0.00  0.00    +0.243 C 
ATOM     56  O   SER A   2      13.450 -31.203 -20.822  0.00  0.00    -0.273 OA
ATOM     57  N   ALA A   3      13.977 -29.344 -21.954  0.00  0.00    -0.297 N 
ATOM     58  H   ALA A   3      14.476 -28.432 -21.941  0.00  0.00    +0.150 HD
BRANCH  55  59
ATOM     59  CA  SER A   2      15.128 -29.774 -19.868  0.00  0.00    +0.178 C 
BRANCH  59  62
ATOM     60  C   TYR A   1      15.151 -29.568 -17.468  0.00  0.00    +0.239 C 
ATOM     61  O   TYR A   1      16.112 -28.796 -17.487  0.00  0.00    -0.274 OA
ATOM     62  N   SER A   2      14.657 -30.136 -18.558  0.00  0.00    -0.295 N 
ATOM     63  H   SER A   2      13.914 -30.858 -18.465  0.00  0.00    +0.150 HD
BRANCH  60  64
ATOM     64  CA  TYR A   1      14.448 -29.910 -16.163  0.00  0.00    +0.149 C 
BRANCH  64  65
ATOM     65  N   TYR A   1      15.412 -29.954 -15.064  0.00  0.00    -0.238 NA
ATOM     66  H   TYR A   1      15.269 -29.360 -14.223  0.00  0.00    +0.142 HD
ENDBRANCH  64  65
BRANCH  64  67
ATOM     67  CB  TYR A   1      13.316 -28.892 -15.918  0.00  0.00    +0.053 C 
BRANCH  67  68
ATOM     68  CG  TYR A   1      12.475 -28.568 -17.160  0.00  0.00    -0.020 A 
ATOM     69  CD2 TYR A   1      11.441 -29.412 -17.579  0.00  0.00    -0.001 A 
ATOM     70  CE2 TYR A   1      10.679 -29.114 -18.700  0.00  0.00    +0.036 A 
ATOM     71  CZ  TYR A   1      10.940 -27.954 -19.422  0.00  0.00    +0.134 A 
ATOM     72  CE1 TYR A   1      11.955 -27.101 -19.029  0.00  0.00    +0.036 A 
ATOM     73  CD1 TYR A   1      12.706 -27.402 -17.901  0.00  0.00    -0.001 A 
BRANCH  71  74
ATOM     74  OH  TYR A   1      10.192 -27.640 -20.533  0.00  0.00    -0.506 OA
ATOM     75  HH  TYR A   1       9.512 -28.344 -20.681  0.00  0.00    +0.292 HD
ENDBRANCH  71  74
ENDBRANCH  67  68
ENDBRANCH  64  67
ENDBRANCH  60  64
ENDBRANCH  59  62
BRANCH  59  76
ATOM     76  CB  SER A   2      16.492 -30.431 -20.128  0.00  0.00    +0.166 C 
BRANCH  76  77
ATOM     77  OG  SER A   2      16.605 -30.878 -21.476  0.00  0.00    -0.380 OA
ATOM     78  H   SER A   2      17.493 -31.295 -21.611  0.00  0.00    +0.211 HD
ENDBRANCH  76  77
ENDBRANCH  59  76
ENDBRANCH  55  59
ENDBRANCH  53  57
ENDBRANCH  49  53
ENDBRANCH  48  50
BRANCH  48  79
ATOM     79  CB  ASP A   4      14.800 -33.280 -25.813  0.00  0.00    +0.143 C 
BRANCH  79  80
ATOM     80  CG  ASP A   4      15.959 -33.857 -25.056  0.00  0.00    +0.367 C 
ATOM     81  OD2 ASP A   4      16.492 -33.125 -24.206  0.00  0.00    -0.246 OA
ATOM     82  OD1 ASP A   4      16.318 -35.047 -25.304  0.00  0.00    -0.246 OA
ENDBRANCH  79  80
ENDBRANCH  48  79
ENDBRANCH  44  48
ENDBRANCH   1  46
BRANCH   1  83
ATOM     83  CB  THR A   5      14.855 -32.232 -30.591  0.00  0.00    +0.137 C 
ATOM     84  CG2 THR A   5      15.238 -31.101 -31.496  0.00  0.00    +0.034 C 
BRANCH  83  85
ATOM     85  OG1 THR A   5      16.047 -32.792 -30.035  0.00  0.00    -0.382 OA
ATOM     86  HG1 THR A   5      16.630 -33.117 -30.766  0.00  0.00    +0.210 HD
ENDBRANCH  83  85
ENDBRANCH   1  83
TORSDOF 34
REMARK  Name = ../refined-set-2016/4zhl/4zhl_pocket.pdb
REMARK  247 active torsions:
REMARK  status: ('A' for Active; 'I' for Inactive)
REMARK    1  A    between atoms: _1  and  _5
REMARK    2  A    between atoms: _5  and  _6
REMARK    3  A    between atoms: _5  and  _8
REMARK    4  A    between atoms: _8  and  _9
REMARK    5  A    between atoms: _12  and  _14
REMARK    6  A    between atoms: _14  and  _15
REMARK    7  A    between atoms: _14  and  _17
REMARK    8  A    between atoms: _17  and  _18
REMARK    9  A    between atoms: _21  and  _23
REMARK   10  A    between atoms: _23  and  _24
REMARK   11  A    between atoms: _23  and  _26
REMARK   12  A    between atoms: _26  and  _27
REMARK   13  A    between atoms: _30  and  _32
REMARK   14  A    between atoms: _32  and  _33
REMARK   15  A    between atoms: _32  and  _35
REMARK   16  A    between atoms: _35  and  _36
REMARK   17  A    between atoms: _36  and  _37
REMARK   18  A    between atoms: _37  and  _38
REMARK   19  A    between atoms: _47  and  _49
REMARK   20  A    between atoms: _49  and  _50
REMARK   21  A    between atoms: _49  and  _52
REMARK   22  A    between atoms: _52  and  _53
REMARK   23  A    between atoms: _56  and  _58
REMARK   24  A    between atoms: _58  and  _59
REMARK   25  A    between atoms: _58  and  _61
REMARK   26  A    between atoms: _61  and  _62
REMARK   27  A    between atoms: _67  and  _68
REMARK   28  A    between atoms: _70  and  _72
REMARK   29  A    between atoms: _72  and  _73
REMARK   30  A    between atoms: _72  and  _75
REMARK   31  A    between atoms: _78  and  _80
REMARK   32  A    between atoms: _80  and  _81
REMARK   33  A    between atoms: _80  and  _83
REMARK   34  A    between atoms: _83  and  _84
REMARK   35  A    between atoms: _84  and  _122
REMARK   36  A    between atoms: _85  and  _87
REMARK   37  A    between atoms: _87  and  _88
REMARK   38  A    between atoms: _90  and  _92
REMARK   39  A    between atoms: _92  and  _93
REMARK   40  A    between atoms: _96  and  _98
REMARK   41  A    between atoms: _98  and  _99
REMARK   42  A    between atoms: _98  and  _101
REMARK   43  A    between atoms: _101  and  _102
REMARK   44  A    between atoms: _105  and  _107
REMARK   45  A    between atoms: _107  and  _108
REMARK   46  A    between atoms: _107  and  _110
REMARK   47  A    between atoms: _110  and  _111
REMARK   48  A    between atoms: _116  and  _118
REMARK   49  A    between atoms: _118  and  _119
REMARK   50  A    between atoms: _118  and  _121
REMARK   51  A    between atoms: _121  and  _122
REMARK   52  A    between atoms: _123  and  _125
REMARK   53  A    between atoms: _125  and  _126
REMARK   54  A    between atoms: _125  and  _128
REMARK   55  A    between atoms: _128  and  _129
REMARK   56  A    between atoms: _135  and  _137
REMARK   57  A    between atoms: _137  and  _138
REMARK   58  A    between atoms: _137  and  _140
REMARK   59  A    between atoms: _140  and  _141
REMARK   60  A    between atoms: _144  and  _146
REMARK   61  A    between atoms: _146  and  _147
REMARK   62  A    between atoms: _146  and  _149
REMARK   63  A    between atoms: _149  and  _150
REMARK   64  A    between atoms: _153  and  _155
REMARK   65  A    between atoms: _155  and  _156
REMARK   66  A    between atoms: _155  and  _158
REMARK   67  A    between atoms: _158  and  _159
REMARK   68  A    between atoms: _164  and  _165
REMARK   69  A    between atoms: _167  and  _169
REMARK   70  A    between atoms: _169  and  _170
REMARK   71  A    between atoms: _169  and  _172
REMARK   72  A    between atoms: _172  and  _173
REMARK   73  A    between atoms: _178  and  _179
REMARK   74  A    between atoms: _181  and  _183
REMARK   75  A    between atoms: _183  and  _184
REMARK   76  A    between atoms: _183  and  _186
REMARK   77  A    between atoms: _186  and  _187
REMARK   78  A    between atoms: _190  and  _192
REMARK   79  A    between atoms: _192  and  _193
REMARK   80  A    between atoms: _192  and  _195
REMARK   81  A    between atoms: _195  and  _196
REMARK   82  A    between atoms: _201  and  _202
REMARK   83  A    between atoms: _204  and  _206
REMARK   84  A    between atoms: _206  and  _207
REMARK   85  A    between atoms: _206  and  _209
REMARK   86  A    between atoms: _209  and  _210
REMARK   87  A    between atoms: _212  and  _214
REMARK   88  A    between atoms: _214  and  _215
REMARK   89  A    between atoms: _218  and  _220
REMARK   90  A    between atoms: _220  and  _221
REMARK   91  A    between atoms: _220  and  _223
REMARK   92  A    between atoms: _223  and  _224
REMARK   93  A    between atoms: _227  and  _229
REMARK   94  A    between atoms: _229  and  _230
REMARK   95  A    between atoms: _229  and  _232
REMARK   96  A    between atoms: _232  and  _233
REMARK   97  A    between atoms: _236  and  _238
REMARK   98  A    between atoms: _238  and  _239
REMARK   99  A    between atoms: _238  and  _241
REMARK  100  A    between atoms: _241  and  _242
REMARK  101  A    between atoms: _245  and  _247
REMARK  102  A    between atoms: _247  and  _248
REMARK  103  A    between atoms: _251  and  _253
REMARK  104  A    between atoms: _253  and  _254
REMARK  105  A    between atoms: _253  and  _256
REMARK  106  A    between atoms: _256  and  _257
REMARK  107  A    between atoms: _262  and  _263
REMARK  108  A    between atoms: _265  and  _267
REMARK  109  A    between atoms: _267  and  _268
REMARK  110  A    between atoms: _267  and  _270
REMARK  111  A    between atoms: _270  and  _271
REMARK  112  A    between atoms: _276  and  _278
REMARK  113  A    between atoms: _278  and  _279
REMARK  114  A    between atoms: _278  and  _281
REMARK  115  A    between atoms: _281  and  _282
REMARK  116  A    between atoms: _285  and  _287
REMARK  117  A    between atoms: _287  and  _288
REMARK  118  A    between atoms: _287  and  _290
REMARK  119  A    between atoms: _290  and  _291
REMARK  120  A    between atoms: _294  and  _296
REMARK  121  A    between atoms: _296  and  _297
REMARK  122  A    between atoms: _296  and  _299
REMARK  123  A    between atoms: _299  and  _300
REMARK  124  A    between atoms: _306  and  _308
REMARK  125  A    between atoms: _308  and  _309
REMARK  126  A    between atoms: _311  and  _313
REMARK  127  A    between atoms: _313  and  _314
REMARK  128  A    between atoms: _313  and  _316
REMARK  129  A    between atoms: _316  and  _317
REMARK  130  A    between atoms: _317  and  _318
REMARK  131  A    between atoms: _318  and  _319
REMARK  132  A    between atoms: _319  and  _320
REMARK  133  A    between atoms: _324  and  _326
REMARK  134  A    between atoms: _326  and  _327
REMARK  135  A    between atoms: _326  and  _329
REMARK  136  A    between atoms: _329  and  _330
REMARK  137  A    between atoms: _332  and  _334
REMARK  138  A    between atoms: _334  and  _335
REMARK  139  A    between atoms: _334  and  _337
REMARK  140  A    between atoms: _337  and  _338
REMARK  141  A    between atoms: _343  and  _344
REMARK  142  A    between atoms: _346  and  _348
REMARK  143  A    between atoms: _348  and  _349
REMARK  144  A    between atoms: _348  and  _351
REMARK  145  A    between atoms: _354  and  _356
REMARK  146  A    between atoms: _356  and  _357
REMARK  147  A    between atoms: _356  and  _359
REMARK  148  A    between atoms: _359  and  _360
REMARK  149  A    between atoms: _365  and  _366
REMARK  150  A    between atoms: _368  and  _370
REMARK  151  A    between atoms: _370  and  _371
REMARK  152  A    between atoms: _370  and  _373
REMARK  153  A    between atoms: _373  and  _374
REMARK  154  A    between atoms: _379  and  _380
REMARK  155  A    between atoms: _382  and  _384
REMARK  156  A    between atoms: _384  and  _385
REMARK  157  A    between atoms: _384  and  _387
REMARK  158  A    between atoms: _387  and  _388
REMARK  159  A    between atoms: _388  and  _389
REMARK  160  A    between atoms: _392  and  _394
REMARK  161  A    between atoms: _394  and  _395
REMARK  162  A    between atoms: _398  and  _400
REMARK  163  A    between atoms: _400  and  _401
REMARK  164  A    between atoms: _404  and  _406
REMARK  165  A    between atoms: _406  and  _407
REMARK  166  A    between atoms: _406  and  _409
REMARK  167  A    between atoms: _409  and  _410
REMARK  168  A    between atoms: _413  and  _415
REMARK  169  A    between atoms: _415  and  _416
REMARK  170  A    between atoms: _415  and  _418
REMARK  171  A    between atoms: _418  and  _419
REMARK  172  A    between atoms: _422  and  _424
REMARK  173  A    between atoms: _424  and  _425
REMARK  174  A    between atoms: _424  and  _427
REMARK  175  A    between atoms: _427  and  _428
REMARK  176  A    between atoms: _430  and  _432
REMARK  177  A    between atoms: _432  and  _433
REMARK  178  A    between atoms: _432  and  _435
REMARK  179  A    between atoms: _435  and  _436
REMARK  180  A    between atoms: _436  and  _546
REMARK  181  A    between atoms: _437  and  _439
REMARK  182  A    between atoms: _439  and  _440
REMARK  183  A    between atoms: _439  and  _442
REMARK  184  A    between atoms: _442  and  _443
REMARK  185  A    between atoms: _443  and  _444
REMARK  186  A    between atoms: _449  and  _451
REMARK  187  A    between atoms: _451  and  _452
REMARK  188  A    between atoms: _454  and  _456
REMARK  189  A    between atoms: _456  and  _457
REMARK  190  A    between atoms: _456  and  _459
REMARK  191  A    between atoms: _459  and  _460
REMARK  192  A    between atoms: _463  and  _465
REMARK  193  A    between atoms: _465  and  _466
REMARK  194  A    between atoms: _465  and  _468
REMARK  195  A    between atoms: _468  and  _469
REMARK  196  A    between atoms: _471  and  _473
REMARK  197  A    between atoms: _473  and  _474
REMARK  198  A    between atoms: _476  and  _478
REMARK  199  A    between atoms: _478  and  _479
REMARK  200  A    between atoms: _481  and  _483
REMARK  201  A    between atoms: _483  and  _484
REMARK  202  A    between atoms: _483  and  _486
REMARK  203  A    between atoms: _489  and  _491
REMARK  204  A    between atoms: _491  and  _492
REMARK  205  A    between atoms: _491  and  _494
REMARK  206  A    between atoms: _494  and  _495
REMARK  207  A    between atoms: _497  and  _499
REMARK  208  A    between atoms: _499  and  _500
REMARK  209  A    between atoms: _499  and  _502
REMARK  210  A    between atoms: _502  and  _503
REMARK  211  A    between atoms: _513  and  _515
REMARK  212  A    between atoms: _515  and  _516
REMARK  213  A    between atoms: _518  and  _520
REMARK  214  A    between atoms: _520  and  _521
REMARK  215  A    between atoms: _520  and  _523
REMARK  216  A    between atoms: _523  and  _524
REMARK  217  A    between atoms: _524  and  _525
REMARK  218  A    between atoms: _525  and  _526
REMARK  219  A    between atoms: _535  and  _537
REMARK  220  A    between atoms: _537  and  _538
REMARK  221  A    between atoms: _540  and  _542
REMARK  222  A    between atoms: _542  and  _543
REMARK  223  A    between atoms: _542  and  _545
REMARK  224  A    between atoms: _547  and  _549
REMARK  225  A    between atoms: _549  and  _550
REMARK  226  A    between atoms: _553  and  _555
REMARK  227  A    between atoms: _555  and  _556
REMARK  228  A    between atoms: _555  and  _558
REMARK  229  A    between atoms: _558  and  _559
REMARK  230  A    between atoms: _562  and  _564
REMARK  231  A    between atoms: _564  and  _565
REMARK  232  A    between atoms: _564  and  _567
REMARK  233  A    between atoms: _567  and  _568
REMARK  234  A    between atoms: _568  and  _569
REMARK  235  A    between atoms: _569  and  _570
REMARK  236  A    between atoms: _570  and  _571
REMARK  237  A    between atoms: _576  and  _577
REMARK  238  A    between atoms: _582  and  _584
REMARK  239  A    between atoms: _584  and  _585
REMARK  240  A    between atoms: _587  and  _589
REMARK  241  A    between atoms: _589  and  _590
REMARK  242  A    between atoms: _589  and  _592
REMARK  243  A    between atoms: _595  and  _597
REMARK  244  A    between atoms: _597  and  _598
REMARK  245  A    between atoms: _597  and  _600
REMARK  246  A    between atoms: _600  and  _601
REMARK  247  A    between atoms: _606  and  _607
REMARK                            x       y       z     vdW  Elec       q    Type
REMARK                         _______ _______ _______ _____ _____    ______ ____
ROOT
ATOM      1  CA  ASP A   1       9.273 -32.777 -16.036  0.00  0.00    +0.144 C 
ENDROOT
BRANCH   1   2
ATOM      2  N   ASP A   1      10.442 -33.624 -15.859  0.00  0.00    -0.239 NA
ATOM      3  H   ASP A   1      10.425 -34.584 -16.259  0.00  0.00    +0.142 HD
ENDBRANCH   1   2
BRANCH   1   4
ATOM      4  C   ASP A   1       8.369 -32.879 -14.817  0.00  0.00    +0.225 C 
ATOM      5  O   ASP A   1       7.360 -33.588 -14.814  0.00  0.00    -0.287 OA
ENDBRANCH   1   4
BRANCH   1   6
ATOM      6  CB  ASP A   1       8.551 -33.169 -17.314  0.00  0.00    +0.139 C 
BRANCH   6   7
ATOM      7  CG  ASP A   1       7.626 -32.075 -17.818  0.00  0.00    +0.367 C 
ATOM      8  OD2 ASP A   1       7.766 -30.907 -17.397  0.00  0.00    -0.246 OA
ATOM      9  OD1 ASP A   1       6.754 -32.382 -18.651  0.00  0.00    -0.246 OA
ENDBRANCH   6   7
ENDBRANCH   1   6
TORSDOF 4
REMARK  Name = ../refined-set-2016/4zhl/4zhl_pocket.pdb
REMARK  247 active torsions:
REMARK  status: ('A' for Active; 'I' for Inactive)
REMARK    1  A    between atoms: _1  and  _5
REMARK    2  A    between atoms: _5  and  _6
REMARK    3  A    between atoms: _5  and  _8
REMARK    4  A    between atoms: _8  and  _9
REMARK    5  A    between atoms: _12  and  _14
REMARK    6  A    between atoms: _14  and  _15
REMARK    7  A    between atoms: _14  and  _17
REMARK    8  A    between atoms: _17  and  _18
REMARK    9  A    between atoms: _21  and  _23
REMARK   10  A    between atoms: _23  and  _24
REMARK   11  A    between atoms: _23  and  _26
REMARK   12  A    between atoms: _26  and  _27
REMARK   13  A    between atoms: _30  and  _32
REMARK   14  A    between atoms: _32  and  _33
REMARK   15  A    between atoms: _32  and  _35
REMARK   16  A    between atoms: _35  and  _36
REMARK   17  A    between atoms: _36  and  _37
REMARK   18  A    between atoms: _37  and  _38
REMARK   19  A    between atoms: _47  and  _49
REMARK   20  A    between atoms: _49  and  _50
REMARK   21  A    between atoms: _49  and  _52
REMARK   22  A    between atoms: _52  and  _53
REMARK   23  A    between atoms: _56  and  _58
REMARK   24  A    between atoms: _58  and  _59
REMARK   25  A    between atoms: _58  and  _61
REMARK   26  A    between atoms: _61  and  _62
REMARK   27  A    between atoms: _67  and  _68
REMARK   28  A    between atoms: _70  and  _72
REMARK   29  A    between atoms: _72  and  _73
REMARK   30  A    between atoms: _72  and  _75
REMARK   31  A    between atoms: _78  and  _80
REMARK   32  A    between atoms: _80  and  _81
REMARK   33  A    between atoms: _80  and  _83
REMARK   34  A    between atoms: _83  and  _84
REMARK   35  A    between atoms: _84  and  _122
REMARK   36  A    between atoms: _85  and  _87
REMARK   37  A    between atoms: _87  and  _88
REMARK   38  A    between atoms: _90  and  _92
REMARK   39  A    between atoms: _92  and  _93
REMARK   40  A    between atoms: _96  and  _98
REMARK   41  A    between atoms: _98  and  _99
REMARK   42  A    between atoms: _98  and  _101
REMARK   43  A    between atoms: _101  and  _102
REMARK   44  A    between atoms: _105  and  _107
REMARK   45  A    between atoms: _107  and  _108
REMARK   46  A    between atoms: _107  and  _110
REMARK   47  A    between atoms: _110  and  _111
REMARK   48  A    between atoms: _116  and  _118
REMARK   49  A    between atoms: _118  and  _119
REMARK   50  A    between atoms: _118  and  _121
REMARK   51  A    between atoms: _121  and  _122
REMARK   52  A    between atoms: _123  and  _125
REMARK   53  A    between atoms: _125  and  _126
REMARK   54  A    between atoms: _125  and  _128
REMARK   55  A    between atoms: _128  and  _129
REMARK   56  A    between atoms: _135  and  _137
REMARK   57  A    between atoms: _137  and  _138
REMARK   58  A    between atoms: _137  and  _140
REMARK   59  A    between atoms: _140  and  _141
REMARK   60  A    between atoms: _144  and  _146
REMARK   61  A    between atoms: _146  and  _147
REMARK   62  A    between atoms: _146  and  _149
REMARK   63  A    between atoms: _149  and  _150
REMARK   64  A    between atoms: _153  and  _155
REMARK   65  A    between atoms: _155  and  _156
REMARK   66  A    between atoms: _155  and  _158
REMARK   67  A    between atoms: _158  and  _159
REMARK   68  A    between atoms: _164  and  _165
REMARK   69  A    between atoms: _167  and  _169
REMARK   70  A    between atoms: _169  and  _170
REMARK   71  A    between atoms: _169  and  _172
REMARK   72  A    between atoms: _172  and  _173
REMARK   73  A    between atoms: _178  and  _179
REMARK   74  A    between atoms: _181  and  _183
REMARK   75  A    between atoms: _183  and  _184
REMARK   76  A    between atoms: _183  and  _186
REMARK   77  A    between atoms: _186  and  _187
REMARK   78  A    between atoms: _190  and  _192
REMARK   79  A    between atoms: _192  and  _193
REMARK   80  A    between atoms: _192  and  _195
REMARK   81  A    between atoms: _195  and  _196
REMARK   82  A    between atoms: _201  and  _202
REMARK   83  A    between atoms: _204  and  _206
REMARK   84  A    between atoms: _206  and  _207
REMARK   85  A    between atoms: _206  and  _209
REMARK   86  A    between atoms: _209  and  _210
REMARK   87  A    between atoms: _212  and  _214
REMARK   88  A    between atoms: _214  and  _215
REMARK   89  A    between atoms: _218  and  _220
REMARK   90  A    between atoms: _220  and  _221
REMARK   91  A    between atoms: _220  and  _223
REMARK   92  A    between atoms: _223  and  _224
REMARK   93  A    between atoms: _227  and  _229
REMARK   94  A    between atoms: _229  and  _230
REMARK   95  A    between atoms: _229  and  _232
REMARK   96  A    between atoms: _232  and  _233
REMARK   97  A    between atoms: _236  and  _238
REMARK   98  A    between atoms: _238  and  _239
REMARK   99  A    between atoms: _238  and  _241
REMARK  100  A    between atoms: _241  and  _242
REMARK  101  A    between atoms: _245  and  _247
REMARK  102  A    between atoms: _247  and  _248
REMARK  103  A    between atoms: _251  and  _253
REMARK  104  A    between atoms: _253  and  _254
REMARK  105  A    between atoms: _253  and  _256
REMARK  106  A    between atoms: _256  and  _257
REMARK  107  A    between atoms: _262  and  _263
REMARK  108  A    between atoms: _265  and  _267
REMARK  109  A    between atoms: _267  and  _268
REMARK  110  A    between atoms: _267  and  _270
REMARK  111  A    between atoms: _270  and  _271
REMARK  112  A    between atoms: _276  and  _278
REMARK  113  A    between atoms: _278  and  _279
REMARK  114  A    between atoms: _278  and  _281
REMARK  115  A    between atoms: _281  and  _282
REMARK  116  A    between atoms: _285  and  _287
REMARK  117  A    between atoms: _287  and  _288
REMARK  118  A    between atoms: _287  and  _290
REMARK  119  A    between atoms: _290  and  _291
REMARK  120  A    between atoms: _294  and  _296
REMARK  121  A    between atoms: _296  and  _297
REMARK  122  A    between atoms: _296  and  _299
REMARK  123  A    between atoms: _299  and  _300
REMARK  124  A    between atoms: _306  and  _308
REMARK  125  A    between atoms: _308  and  _309
REMARK  126  A    between atoms: _311  and  _313
REMARK  127  A    between atoms: _313  and  _314
REMARK  128  A    between atoms: _313  and  _316
REMARK  129  A    between atoms: _316  and  _317
REMARK  130  A    between atoms: _317  and  _318
REMARK  131  A    between atoms: _318  and  _319
REMARK  132  A    between atoms: _319  and  _320
REMARK  133  A    between atoms: _324  and  _326
REMARK  134  A    between atoms: _326  and  _327
REMARK  135  A    between atoms: _326  and  _329
REMARK  136  A    between atoms: _329  and  _330
REMARK  137  A    between atoms: _332  and  _334
REMARK  138  A    between atoms: _334  and  _335
REMARK  139  A    between atoms: _334  and  _337
REMARK  140  A    between atoms: _337  and  _338
REMARK  141  A    between atoms: _343  and  _344
REMARK  142  A    between atoms: _346  and  _348
REMARK  143  A    between atoms: _348  and  _349
REMARK  144  A    between atoms: _348  and  _351
REMARK  145  A    between atoms: _354  and  _356
REMARK  146  A    between atoms: _356  and  _357
REMARK  147  A    between atoms: _356  and  _359
REMARK  148  A    between atoms: _359  and  _360
REMARK  149  A    between atoms: _365  and  _366
REMARK  150  A    between atoms: _368  and  _370
REMARK  151  A    between atoms: _370  and  _371
REMARK  152  A    between atoms: _370  and  _373
REMARK  153  A    between atoms: _373  and  _374
REMARK  154  A    between atoms: _379  and  _380
REMARK  155  A    between atoms: _382  and  _384
REMARK  156  A    between atoms: _384  and  _385
REMARK  157  A    between atoms: _384  and  _387
REMARK  158  A    between atoms: _387  and  _388
REMARK  159  A    between atoms: _388  and  _389
REMARK  160  A    between atoms: _392  and  _394
REMARK  161  A    between atoms: _394  and  _395
REMARK  162  A    between atoms: _398  and  _400
REMARK  163  A    between atoms: _400  and  _401
REMARK  164  A    between atoms: _404  and  _406
REMARK  165  A    between atoms: _406  and  _407
REMARK  166  A    between atoms: _406  and  _409
REMARK  167  A    between atoms: _409  and  _410
REMARK  168  A    between atoms: _413  and  _415
REMARK  169  A    between atoms: _415  and  _416
REMARK  170  A    between atoms: _415  and  _418
REMARK  171  A    between atoms: _418  and  _419
REMARK  172  A    between atoms: _422  and  _424
REMARK  173  A    between atoms: _424  and  _425
REMARK  174  A    between atoms: _424  and  _427
REMARK  175  A    between atoms: _427  and  _428
REMARK  176  A    between atoms: _430  and  _432
REMARK  177  A    between atoms: _432  and  _433
REMARK  178  A    between atoms: _432  and  _435
REMARK  179  A    between atoms: _435  and  _436
REMARK  180  A    between atoms: _436  and  _546
REMARK  181  A    between atoms: _437  and  _439
REMARK  182  A    between atoms: _439  and  _440
REMARK  183  A    between atoms: _439  and  _442
REMARK  184  A    between atoms: _442  and  _443
REMARK  185  A    between atoms: _443  and  _444
REMARK  186  A    between atoms: _449  and  _451
REMARK  187  A    between atoms: _451  and  _452
REMARK  188  A    between atoms: _454  and  _456
REMARK  189  A    between atoms: _456  and  _457
REMARK  190  A    between atoms: _456  and  _459
REMARK  191  A    between atoms: _459  and  _460
REMARK  192  A    between atoms: _463  and  _465
REMARK  193  A    between atoms: _465  and  _466
REMARK  194  A    between atoms: _465  and  _468
REMARK  195  A    between atoms: _468  and  _469
REMARK  196  A    between atoms: _471  and  _473
REMARK  197  A    between atoms: _473  and  _474
REMARK  198  A    between atoms: _476  and  _478
REMARK  199  A    between atoms: _478  and  _479
REMARK  200  A    between atoms: _481  and  _483
REMARK  201  A    between atoms: _483  and  _484
REMARK  202  A    between atoms: _483  and  _486
REMARK  203  A    between atoms: _489  and  _491
REMARK  204  A    between atoms: _491  and  _492
REMARK  205  A    between atoms: _491  and  _494
REMARK  206  A    between atoms: _494  and  _495
REMARK  207  A    between atoms: _497  and  _499
REMARK  208  A    between atoms: _499  and  _500
REMARK  209  A    between atoms: _499  and  _502
REMARK  210  A    between atoms: _502  and  _503
REMARK  211  A    between atoms: _513  and  _515
REMARK  212  A    between atoms: _515  and  _516
REMARK  213  A    between atoms: _518  and  _520
REMARK  214  A    between atoms: _520  and  _521
REMARK  215  A    between atoms: _520  and  _523
REMARK  216  A    between atoms: _523  and  _524
REMARK  217  A    between atoms: _524  and  _525
REMARK  218  A    between atoms: _525  and  _526
REMARK  219  A    between atoms: _535  and  _537
REMARK  220  A    between atoms: _537  and  _538
REMARK  221  A    between atoms: _540  and  _542
REMARK  222  A    between atoms: _542  and  _543
REMARK  223  A    between atoms: _542  and  _545
REMARK  224  A    between atoms: _547  and  _549
REMARK  225  A    between atoms: _549  and  _550
REMARK  226  A    between atoms: _553  and  _555
REMARK  227  A    between atoms: _555  and  _556
REMARK  228  A    between atoms: _555  and  _558
REMARK  229  A    between atoms: _558  and  _559
REMARK  230  A    between atoms: _562  and  _564
REMARK  231  A    between atoms: _564  and  _565
REMARK  232  A    between atoms: _564  and  _567
REMARK  233  A    between atoms: _567  and  _568
REMARK  234  A    between atoms: _568  and  _569
REMARK  235  A    between atoms: _569  and  _570
REMARK  236  A    between atoms: _570  and  _571
REMARK  237  A    between atoms: _576  and  _577
REMARK  238  A    between atoms: _582  and  _584
REMARK  239  A    between atoms: _584  and  _585
REMARK  240  A    between atoms: _587  and  _589
REMARK  241  A    between atoms: _589  and  _590
REMARK  242  A    between atoms: _589  and  _592
REMARK  243  A    between atoms: _595  and  _597
REMARK  244  A    between atoms: _597  and  _598
REMARK  245  A    between atoms: _597  and  _600
REMARK  246  A    between atoms: _600  and  _601
REMARK  247  A    between atoms: _606  and  _607
REMARK                            x       y       z     vdW  Elec       q    Type
REMARK                         _______ _______ _______ _____ _____    ______ ____
ROOT
ATOM      1  CA  ILE A   1      -6.050 -39.956 -16.533  0.00  0.00    +0.133 C 
ENDROOT
BRANCH   1   2
ATOM      2  N   ILE A   1      -6.551 -41.319 -16.270  0.00  0.00    -0.239 NA
ATOM      3  H   ILE A   1      -7.261 -41.720 -16.916  0.00  0.00    +0.142 HD
ENDBRANCH   1   2
BRANCH   1   4
ATOM      4  C   ILE A   1      -7.248 -39.028 -16.607  0.00  0.00    +0.224 C 
ATOM      5  O   ILE A   1      -8.356 -39.479 -16.876  0.00  0.00    -0.287 OA
ENDBRANCH   1   4
BRANCH   1   6
ATOM      6  CB  ILE A   1      -5.240 -39.850 -17.847  0.00  0.00    +0.023 C 
ATOM      7  CG2 ILE A   1      -3.839 -40.415 -17.634  0.00  0.00    +0.002 C 
BRANCH   6   8
ATOM      8  CG1 ILE A   1      -5.977 -40.566 -18.988  0.00  0.00    +0.002 C 
ATOM      9  CD1 ILE A   1      -5.402 -40.353 -20.382  0.00  0.00    +0.000 C 
ENDBRANCH   6   8
ENDBRANCH   1   6
TORSDOF 4
REMARK  Name = ../refined-set-2016/4zhl/4zhl_pocket.pdb
REMARK  247 active torsions:
REMARK  status: ('A' for Active; 'I' for Inactive)
REMARK    1  A    between atoms: _1  and  _5
REMARK    2  A    between atoms: _5  and  _6
REMARK    3  A    between atoms: _5  and  _8
REMARK    4  A    between atoms: _8  and  _9
REMARK    5  A    between atoms: _12  and  _14
REMARK    6  A    between atoms: _14  and  _15
REMARK    7  A    between atoms: _14  and  _17
REMARK    8  A    between atoms: _17  and  _18
REMARK    9  A    between atoms: _21  and  _23
REMARK   10  A    between atoms: _23  and  _24
REMARK   11  A    between atoms: _23  and  _26
REMARK   12  A    between atoms: _26  and  _27
REMARK   13  A    between atoms: _30  and  _32
REMARK   14  A    between atoms: _32  and  _33
REMARK   15  A    between atoms: _32  and  _35
REMARK   16  A    between atoms: _35  and  _36
REMARK   17  A    between atoms: _36  and  _37
REMARK   18  A    between atoms: _37  and  _38
REMARK   19  A    between atoms: _47  and  _49
REMARK   20  A    between atoms: _49  and  _50
REMARK   21  A    between atoms: _49  and  _52
REMARK   22  A    between atoms: _52  and  _53
REMARK   23  A    between atoms: _56  and  _58
REMARK   24  A    between atoms: _58  and  _59
REMARK   25  A    between atoms: _58  and  _61
REMARK   26  A    between atoms: _61  and  _62
REMARK   27  A    between atoms: _67  and  _68
REMARK   28  A    between atoms: _70  and  _72
REMARK   29  A    between atoms: _72  and  _73
REMARK   30  A    between atoms: _72  and  _75
REMARK   31  A    between atoms: _78  and  _80
REMARK   32  A    between atoms: _80  and  _81
REMARK   33  A    between atoms: _80  and  _83
REMARK   34  A    between atoms: _83  and  _84
REMARK   35  A    between atoms: _84  and  _122
REMARK   36  A    between atoms: _85  and  _87
REMARK   37  A    between atoms: _87  and  _88
REMARK   38  A    between atoms: _90  and  _92
REMARK   39  A    between atoms: _92  and  _93
REMARK   40  A    between atoms: _96  and  _98
REMARK   41  A    between atoms: _98  and  _99
REMARK   42  A    between atoms: _98  and  _101
REMARK   43  A    between atoms: _101  and  _102
REMARK   44  A    between atoms: _105  and  _107
REMARK   45  A    between atoms: _107  and  _108
REMARK   46  A    between atoms: _107  and  _110
REMARK   47  A    between atoms: _110  and  _111
REMARK   48  A    between atoms: _116  and  _118
REMARK   49  A    between atoms: _118  and  _119
REMARK   50  A    between atoms: _118  and  _121
REMARK   51  A    between atoms: _121  and  _122
REMARK   52  A    between atoms: _123  and  _125
REMARK   53  A    between atoms: _125  and  _126
REMARK   54  A    between atoms: _125  and  _128
REMARK   55  A    between atoms: _128  and  _129
REMARK   56  A    between atoms: _135  and  _137
REMARK   57  A    between atoms: _137  and  _138
REMARK   58  A    between atoms: _137  and  _140
REMARK   59  A    between atoms: _140  and  _141
REMARK   60  A    between atoms: _144  and  _146
REMARK   61  A    between atoms: _146  and  _147
REMARK   62  A    between atoms: _146  and  _149
REMARK   63  A    between atoms: _149  and  _150
REMARK   64  A    between atoms: _153  and  _155
REMARK   65  A    between atoms: _155  and  _156
REMARK   66  A    between atoms: _155  and  _158
REMARK   67  A    between atoms: _158  and  _159
REMARK   68  A    between atoms: _164  and  _165
REMARK   69  A    between atoms: _167  and  _169
REMARK   70  A    between atoms: _169  and  _170
REMARK   71  A    between atoms: _169  and  _172
REMARK   72  A    between atoms: _172  and  _173
REMARK   73  A    between atoms: _178  and  _179
REMARK   74  A    between atoms: _181  and  _183
REMARK   75  A    between atoms: _183  and  _184
REMARK   76  A    between atoms: _183  and  _186
REMARK   77  A    between atoms: _186  and  _187
REMARK   78  A    between atoms: _190  and  _192
REMARK   79  A    between atoms: _192  and  _193
REMARK   80  A    between atoms: _192  and  _195
REMARK   81  A    between atoms: _195  and  _196
REMARK   82  A    between atoms: _201  and  _202
REMARK   83  A    between atoms: _204  and  _206
REMARK   84  A    between atoms: _206  and  _207
REMARK   85  A    between atoms: _206  and  _209
REMARK   86  A    between atoms: _209  and  _210
REMARK   87  A    between atoms: _212  and  _214
REMARK   88  A    between atoms: _214  and  _215
REMARK   89  A    between atoms: _218  and  _220
REMARK   90  A    between atoms: _220  and  _221
REMARK   91  A    between atoms: _220  and  _223
REMARK   92  A    between atoms: _223  and  _224
REMARK   93  A    between atoms: _227  and  _229
REMARK   94  A    between atoms: _229  and  _230
REMARK   95  A    between atoms: _229  and  _232
REMARK   96  A    between atoms: _232  and  _233
REMARK   97  A    between atoms: _236  and  _238
REMARK   98  A    between atoms: _238  and  _239
REMARK   99  A    between atoms: _238  and  _241
REMARK  100  A    between atoms: _241  and  _242
REMARK  101  A    between atoms: _245  and  _247
REMARK  102  A    between atoms: _247  and  _248
REMARK  103  A    between atoms: _251  and  _253
REMARK  104  A    between atoms: _253  and  _254
REMARK  105  A    between atoms: _253  and  _256
REMARK  106  A    between atoms: _256  and  _257
REMARK  107  A    between atoms: _262  and  _263
REMARK  108  A    between atoms: _265  and  _267
REMARK  109  A    between atoms: _267  and  _268
REMARK  110  A    between atoms: _267  and  _270
REMARK  111  A    between atoms: _270  and  _271
REMARK  112  A    between atoms: _276  and  _278
REMARK  113  A    between atoms: _278  and  _279
REMARK  114  A    between atoms: _278  and  _281
REMARK  115  A    between atoms: _281  and  _282
REMARK  116  A    between atoms: _285  and  _287
REMARK  117  A    between atoms: _287  and  _288
REMARK  118  A    between atoms: _287  and  _290
REMARK  119  A    between atoms: _290  and  _291
REMARK  120  A    between atoms: _294  and  _296
REMARK  121  A    between atoms: _296  and  _297
REMARK  122  A    between atoms: _296  and  _299
REMARK  123  A    between atoms: _299  and  _300
REMARK  124  A    between atoms: _306  and  _308
REMARK  125  A    between atoms: _308  and  _309
REMARK  126  A    between atoms: _311  and  _313
REMARK  127  A    between atoms: _313  and  _314
REMARK  128  A    between atoms: _313  and  _316
REMARK  129  A    between atoms: _316  and  _317
REMARK  130  A    between atoms: _317  and  _318
REMARK  131  A    between atoms: _318  and  _319
REMARK  132  A    between atoms: _319  and  _320
REMARK  133  A    between atoms: _324  and  _326
REMARK  134  A    between atoms: _326  and  _327
REMARK  135  A    between atoms: _326  and  _329
REMARK  136  A    between atoms: _329  and  _330
REMARK  137  A    between atoms: _332  and  _334
REMARK  138  A    between atoms: _334  and  _335
REMARK  139  A    between atoms: _334  and  _337
REMARK  140  A    between atoms: _337  and  _338
REMARK  141  A    between atoms: _343  and  _344
REMARK  142  A    between atoms: _346  and  _348
REMARK  143  A    between atoms: _348  and  _349
REMARK  144  A    between atoms: _348  and  _351
REMARK  145  A    between atoms: _354  and  _356
REMARK  146  A    between atoms: _356  and  _357
REMARK  147  A    between atoms: _356  and  _359
REMARK  148  A    between atoms: _359  and  _360
REMARK  149  A    between atoms: _365  and  _366
REMARK  150  A    between atoms: _368  and  _370
REMARK  151  A    between atoms: _370  and  _371
REMARK  152  A    between atoms: _370  and  _373
REMARK  153  A    between atoms: _373  and  _374
REMARK  154  A    between atoms: _379  and  _380
REMARK  155  A    between atoms: _382  and  _384
REMARK  156  A    between atoms: _384  and  _385
REMARK  157  A    between atoms: _384  and  _387
REMARK  158  A    between atoms: _387  and  _388
REMARK  159  A    between atoms: _388  and  _389
REMARK  160  A    between atoms: _392  and  _394
REMARK  161  A    between atoms: _394  and  _395
REMARK  162  A    between atoms: _398  and  _400
REMARK  163  A    between atoms: _400  and  _401
REMARK  164  A    between atoms: _404  and  _406
REMARK  165  A    between atoms: _406  and  _407
REMARK  166  A    between atoms: _406  and  _409
REMARK  167  A    between atoms: _409  and  _410
REMARK  168  A    between atoms: _413  and  _415
REMARK  169  A    between atoms: _415  and  _416
REMARK  170  A    between atoms: _415  and  _418
REMARK  171  A    between atoms: _418  and  _419
REMARK  172  A    between atoms: _422  and  _424
REMARK  173  A    between atoms: _424  and  _425
REMARK  174  A    between atoms: _424  and  _427
REMARK  175  A    between atoms: _427  and  _428
REMARK  176  A    between atoms: _430  and  _432
REMARK  177  A    between atoms: _432  and  _433
REMARK  178  A    between atoms: _432  and  _435
REMARK  179  A    between atoms: _435  and  _436
REMARK  180  A    between atoms: _436  and  _546
REMARK  181  A    between atoms: _437  and  _439
REMARK  182  A    between atoms: _439  and  _440
REMARK  183  A    between atoms: _439  and  _442
REMARK  184  A    between atoms: _442  and  _443
REMARK  185  A    between atoms: _443  and  _444
REMARK  186  A    between atoms: _449  and  _451
REMARK  187  A    between atoms: _451  and  _452
REMARK  188  A    between atoms: _454  and  _456
REMARK  189  A    between atoms: _456  and  _457
REMARK  190  A    between atoms: _456  and  _459
REMARK  191  A    between atoms: _459  and  _460
REMARK  192  A    between atoms: _463  and  _465
REMARK  193  A    between atoms: _465  and  _466
REMARK  194  A    between atoms: _465  and  _468
REMARK  195  A    between atoms: _468  and  _469
REMARK  196  A    between atoms: _471  and  _473
REMARK  197  A    between atoms: _473  and  _474
REMARK  198  A    between atoms: _476  and  _478
REMARK  199  A    between atoms: _478  and  _479
REMARK  200  A    between atoms: _481  and  _483
REMARK  201  A    between atoms: _483  and  _484
REMARK  202  A    between atoms: _483  and  _486
REMARK  203  A    between atoms: _489  and  _491
REMARK  204  A    between atoms: _491  and  _492
REMARK  205  A    between atoms: _491  and  _494
REMARK  206  A    between atoms: _494  and  _495
REMARK  207  A    between atoms: _497  and  _499
REMARK  208  A    between atoms: _499  and  _500
REMARK  209  A    between atoms: _499  and  _502
REMARK  210  A    between atoms: _502  and  _503
REMARK  211  A    between atoms: _513  and  _515
REMARK  212  A    between atoms: _515  and  _516
REMARK  213  A    between atoms: _518  and  _520
REMARK  214  A    between atoms: _520  and  _521
REMARK  215  A    between atoms: _520  and  _523
REMARK  216  A    between atoms: _523  and  _524
REMARK  217  A    between atoms: _524  and  _525
REMARK  218  A    between atoms: _525  and  _526
REMARK  219  A    between atoms: _535  and  _537
REMARK  220  A    between atoms: _537  and  _538
REMARK  221  A    between atoms: _540  and  _542
REMARK  222  A    between atoms: _542  and  _543
REMARK  223  A    between atoms: _542  and  _545
REMARK  224  A    between atoms: _547  and  _549
REMARK  225  A    between atoms: _549  and  _550
REMARK  226  A    between atoms: _553  and  _555
REMARK  227  A    between atoms: _555  and  _556
REMARK  228  A    between atoms: _555  and  _558
REMARK  229  A    between atoms: _558  and  _559
REMARK  230  A    between atoms: _562  and  _564
REMARK  231  A    between atoms: _564  and  _565
REMARK  232  A    between atoms: _564  and  _567
REMARK  233  A    between atoms: _567  and  _568
REMARK  234  A    between atoms: _568  and  _569
REMARK  235  A    between atoms: _569  and  _570
REMARK  236  A    between atoms: _570  and  _571
REMARK  237  A    between atoms: _576  and  _577
REMARK  238  A    between atoms: _582  and  _584
REMARK  239  A    between atoms: _584  and  _585
REMARK  240  A    between atoms: _587  and  _589
REMARK  241  A    between atoms: _589  and  _590
REMARK  242  A    between atoms: _589  and  _592
REMARK  243  A    between atoms: _595  and  _597
REMARK  244  A    between atoms: _597  and  _598
REMARK  245  A    between atoms: _597  and  _600
REMARK  246  A    between atoms: _600  and  _601
REMARK  247  A    between atoms: _606  and  _607
REMARK                            x       y       z     vdW  Elec       q    Type
REMARK                         _______ _______ _______ _____ _____    ______ ____
ROOT
ATOM      1  CA  GLY A   2      -7.219 -31.141 -22.644  0.00  0.00    +0.176 C 
ENDROOT
BRANCH   1   3
ATOM      2  C   PHE A   1      -8.749 -30.174 -21.032  0.00  0.00    +0.239 C 
ATOM      3  N   GLY A   2      -7.996 -31.195 -21.423  0.00  0.00    -0.296 N 
ATOM      4  H   GLY A   2      -7.963 -32.054 -20.838  0.00  0.00    +0.150 HD
ATOM      5  O   PHE A   1      -8.950 -29.189 -21.742  0.00  0.00    -0.274 OA
BRANCH   2   6
ATOM      6  CA  PHE A   1      -9.413 -30.307 -19.655  0.00  0.00    +0.149 C 
BRANCH   6   7
ATOM      7  N   PHE A   1      -8.638 -31.232 -18.838  0.00  0.00    -0.238 NA
ATOM      8  H   PHE A   1      -7.727 -30.901 -18.460  0.00  0.00    +0.142 HD
ENDBRANCH   6   7
BRANCH   6   9
ATOM      9  CB  PHE A   1      -9.504 -28.923 -18.973  0.00  0.00    +0.053 C 
BRANCH   9  10
ATOM     10  CG  PHE A   1     -10.409 -28.865 -17.730  0.00  0.00    -0.020 A 
ATOM     11  CD2 PHE A   1      -9.891 -28.551 -16.482  0.00  0.00    -0.004 A 
ATOM     12  CE2 PHE A   1     -10.717 -28.452 -15.356  0.00  0.00    -0.000 A 
ATOM     13  CZ  PHE A   1     -12.078 -28.625 -15.484  0.00  0.00    -0.000 A 
ATOM     14  CE1 PHE A   1     -12.613 -28.906 -16.733  0.00  0.00    -0.000 A 
ATOM     15  CD1 PHE A   1     -11.780 -29.018 -17.842  0.00  0.00    -0.004 A 
ENDBRANCH   9  10
ENDBRANCH   6   9
ENDBRANCH   2   6
ENDBRANCH   1   3
BRANCH   1  16
ATOM     16  C   GLY A   2      -8.114 -31.366 -23.857  0.00  0.00    +0.243 C 
ATOM     17  O   GLY A   2      -9.283 -31.751 -23.740  0.00  0.00    -0.273 OA
ATOM     18  N   LYS A   3      -7.545 -31.163 -25.038  0.00  0.00    -0.298 N 
ATOM     19  H   LYS A   3      -6.540 -30.901 -25.087  0.00  0.00    +0.150 HD
BRANCH  18  20
ATOM     20  CA  LYS A   3      -8.315 -31.304 -26.269  0.00  0.00    +0.137 C 
BRANCH  20  21
ATOM     21  C   LYS A   3      -8.930 -32.665 -26.414  0.00  0.00    +0.227 C 
ATOM     22  O   LYS A   3      -8.353 -33.660 -26.004  0.00  0.00    -0.286 OA
ENDBRANCH  20  21
BRANCH  20  23
ATOM     23  CB  LYS A   3      -7.442 -31.000 -27.495  0.00  0.00    +0.028 C 
BRANCH  23  24
ATOM     24  CG  LYS A   3      -6.960 -29.562 -27.538  0.00  0.00    -0.000 C 
BRANCH  24  25
ATOM     25  CD  LYS A   3      -6.288 -29.225 -28.869  0.00  0.00    -0.024 C 
BRANCH  25  26
ATOM     26  CE  LYS A   3      -5.867 -27.765 -28.898  0.00  0.00    -0.086 C 
BRANCH  26  27
ATOM     27  NZ  LYS A   3      -4.817 -27.493 -29.925  0.00  0.00    +0.380 N 
ATOM     28  HZ1 LYS A   3      -3.974 -28.066 -29.718  0.00  0.00    -0.089 HD
ATOM     29  HZ2 LYS A   3      -4.566 -26.484 -29.903  0.00  0.00    -0.089 HD
ATOM     30  HZ3 LYS A   3      -5.183 -27.740 -30.867  0.00  0.00    -0.089 HD
ENDBRANCH  26  27
ENDBRANCH  25  26
ENDBRANCH  24  25
ENDBRANCH  23  24
ENDBRANCH  20  23
ENDBRANCH  18  20
ENDBRANCH   1  16
TORSDOF 13
REMARK  Name = ../refined-set-2016/4zhl/4zhl_pocket.pdb
REMARK  247 active torsions:
REMARK  status: ('A' for Active; 'I' for Inactive)
REMARK    1  A    between atoms: _1  and  _5
REMARK    2  A    between atoms: _5  and  _6
REMARK    3  A    between atoms: _5  and  _8
REMARK    4  A    between atoms: _8  and  _9
REMARK    5  A    between atoms: _12  and  _14
REMARK    6  A    between atoms: _14  and  _15
REMARK    7  A    between atoms: _14  and  _17
REMARK    8  A    between atoms: _17  and  _18
REMARK    9  A    between atoms: _21  and  _23
REMARK   10  A    between atoms: _23  and  _24
REMARK   11  A    between atoms: _23  and  _26
REMARK   12  A    between atoms: _26  and  _27
REMARK   13  A    between atoms: _30  and  _32
REMARK   14  A    between atoms: _32  and  _33
REMARK   15  A    between atoms: _32  and  _35
REMARK   16  A    between atoms: _35  and  _36
REMARK   17  A    between atoms: _36  and  _37
REMARK   18  A    between atoms: _37  and  _38
REMARK   19  A    between atoms: _47  and  _49
REMARK   20  A    between atoms: _49  and  _50
REMARK   21  A    between atoms: _49  and  _52
REMARK   22  A    between atoms: _52  and  _53
REMARK   23  A    between atoms: _56  and  _58
REMARK   24  A    between atoms: _58  and  _59
REMARK   25  A    between atoms: _58  and  _61
REMARK   26  A    between atoms: _61  and  _62
REMARK   27  A    between atoms: _67  and  _68
REMARK   28  A    between atoms: _70  and  _72
REMARK   29  A    between atoms: _72  and  _73
REMARK   30  A    between atoms: _72  and  _75
REMARK   31  A    between atoms: _78  and  _80
REMARK   32  A    between atoms: _80  and  _81
REMARK   33  A    between atoms: _80  and  _83
REMARK   34  A    between atoms: _83  and  _84
REMARK   35  A    between atoms: _84  and  _122
REMARK   36  A    between atoms: _85  and  _87
REMARK   37  A    between atoms: _87  and  _88
REMARK   38  A    between atoms: _90  and  _92
REMARK   39  A    between atoms: _92  and  _93
REMARK   40  A    between atoms: _96  and  _98
REMARK   41  A    between atoms: _98  and  _99
REMARK   42  A    between atoms: _98  and  _101
REMARK   43  A    between atoms: _101  and  _102
REMARK   44  A    between atoms: _105  and  _107
REMARK   45  A    between atoms: _107  and  _108
REMARK   46  A    between atoms: _107  and  _110
REMARK   47  A    between atoms: _110  and  _111
REMARK   48  A    between atoms: _116  and  _118
REMARK   49  A    between atoms: _118  and  _119
REMARK   50  A    between atoms: _118  and  _121
REMARK   51  A    between atoms: _121  and  _122
REMARK   52  A    between atoms: _123  and  _125
REMARK   53  A    between atoms: _125  and  _126
REMARK   54  A    between atoms: _125  and  _128
REMARK   55  A    between atoms: _128  and  _129
REMARK   56  A    between atoms: _135  and  _137
REMARK   57  A    between atoms: _137  and  _138
REMARK   58  A    between atoms: _137  and  _140
REMARK   59  A    between atoms: _140  and  _141
REMARK   60  A    between atoms: _144  and  _146
REMARK   61  A    between atoms: _146  and  _147
REMARK   62  A    between atoms: _146  and  _149
REMARK   63  A    between atoms: _149  and  _150
REMARK   64  A    between atoms: _153  and  _155
REMARK   65  A    between atoms: _155  and  _156
REMARK   66  A    between atoms: _155  and  _158
REMARK   67  A    between atoms: _158  and  _159
REMARK   68  A    between atoms: _164  and  _165
REMARK   69  A    between atoms: _167  and  _169
REMARK   70  A    between atoms: _169  and  _170
REMARK   71  A    between atoms: _169  and  _172
REMARK   72  A    between atoms: _172  and  _173
REMARK   73  A    between atoms: _178  and  _179
REMARK   74  A    between atoms: _181  and  _183
REMARK   75  A    between atoms: _183  and  _184
REMARK   76  A    between atoms: _183  and  _186
REMARK   77  A    between atoms: _186  and  _187
REMARK   78  A    between atoms: _190  and  _192
REMARK   79  A    between atoms: _192  and  _193
REMARK   80  A    between atoms: _192  and  _195
REMARK   81  A    between atoms: _195  and  _196
REMARK   82  A    between atoms: _201  and  _202
REMARK   83  A    between atoms: _204  and  _206
REMARK   84  A    between atoms: _206  and  _207
REMARK   85  A    between atoms: _206  and  _209
REMARK   86  A    between atoms: _209  and  _210
REMARK   87  A    between atoms: _212  and  _214
REMARK   88  A    between atoms: _214  and  _215
REMARK   89  A    between atoms: _218  and  _220
REMARK   90  A    between atoms: _220  and  _221
REMARK   91  A    between atoms: _220  and  _223
REMARK   92  A    between atoms: _223  and  _224
REMARK   93  A    between atoms: _227  and  _229
REMARK   94  A    between atoms: _229  and  _230
REMARK   95  A    between atoms: _229  and  _232
REMARK   96  A    between atoms: _232  and  _233
REMARK   97  A    between atoms: _236  and  _238
REMARK   98  A    between atoms: _238  and  _239
REMARK   99  A    between atoms: _238  and  _241
REMARK  100  A    between atoms: _241  and  _242
REMARK  101  A    between atoms: _245  and  _247
REMARK  102  A    between atoms: _247  and  _248
REMARK  103  A    between atoms: _251  and  _253
REMARK  104  A    between atoms: _253  and  _254
REMARK  105  A    between atoms: _253  and  _256
REMARK  106  A    between atoms: _256  and  _257
REMARK  107  A    between atoms: _262  and  _263
REMARK  108  A    between atoms: _265  and  _267
REMARK  109  A    between atoms: _267  and  _268
REMARK  110  A    between atoms: _267  and  _270
REMARK  111  A    between atoms: _270  and  _271
REMARK  112  A    between atoms: _276  and  _278
REMARK  113  A    between atoms: _278  and  _279
REMARK  114  A    between atoms: _278  and  _281
REMARK  115  A    between atoms: _281  and  _282
REMARK  116  A    between atoms: _285  and  _287
REMARK  117  A    between atoms: _287  and  _288
REMARK  118  A    between atoms: _287  and  _290
REMARK  119  A    between atoms: _290  and  _291
REMARK  120  A    between atoms: _294  and  _296
REMARK  121  A    between atoms: _296  and  _297
REMARK  122  A    between atoms: _296  and  _299
REMARK  123  A    between atoms: _299  and  _300
REMARK  124  A    between atoms: _306  and  _308
REMARK  125  A    between atoms: _308  and  _309
REMARK  126  A    between atoms: _311  and  _313
REMARK  127  A    between atoms: _313  and  _314
REMARK  128  A    between atoms: _313  and  _316
REMARK  129  A    between atoms: _316  and  _317
REMARK  130  A    between atoms: _317  and  _318
REMARK  131  A    between atoms: _318  and  _319
REMARK  132  A    between atoms: _319  and  _320
REMARK  133  A    between atoms: _324  and  _326
REMARK  134  A    between atoms: _326  and  _327
REMARK  135  A    between atoms: _326  and  _329
REMARK  136  A    between atoms: _329  and  _330
REMARK  137  A    between atoms: _332  and  _334
REMARK  138  A    between atoms: _334  and  _335
REMARK  139  A    between atoms: _334  and  _337
REMARK  140  A    between atoms: _337  and  _338
REMARK  141  A    between atoms: _343  and  _344
REMARK  142  A    between atoms: _346  and  _348
REMARK  143  A    between atoms: _348  and  _349
REMARK  144  A    between atoms: _348  and  _351
REMARK  145  A    between atoms: _354  and  _356
REMARK  146  A    between atoms: _356  and  _357
REMARK  147  A    between atoms: _356  and  _359
REMARK  148  A    between atoms: _359  and  _360
REMARK  149  A    between atoms: _365  and  _366
REMARK  150  A    between atoms: _368  and  _370
REMARK  151  A    between atoms: _370  and  _371
REMARK  152  A    between atoms: _370  and  _373
REMARK  153  A    between atoms: _373  and  _374
REMARK  154  A    between atoms: _379  and  _380
REMARK  155  A    between atoms: _382  and  _384
REMARK  156  A    between atoms: _384  and  _385
REMARK  157  A    between atoms: _384  and  _387
REMARK  158  A    between atoms: _387  and  _388
REMARK  159  A    between atoms: _388  and  _389
REMARK  160  A    between atoms: _392  and  _394
REMARK  161  A    between atoms: _394  and  _395
REMARK  162  A    between atoms: _398  and  _400
REMARK  163  A    between atoms: _400  and  _401
REMARK  164  A    between atoms: _404  and  _406
REMARK  165  A    between atoms: _406  and  _407
REMARK  166  A    between atoms: _406  and  _409
REMARK  167  A    between atoms: _409  and  _410
REMARK  168  A    between atoms: _413  and  _415
REMARK  169  A    between atoms: _415  and  _416
REMARK  170  A    between atoms: _415  and  _418
REMARK  171  A    between atoms: _418  and  _419
REMARK  172  A    between atoms: _422  and  _424
REMARK  173  A    between atoms: _424  and  _425
REMARK  174  A    between atoms: _424  and  _427
REMARK  175  A    between atoms: _427  and  _428
REMARK  176  A    between atoms: _430  and  _432
REMARK  177  A    between atoms: _432  and  _433
REMARK  178  A    between atoms: _432  and  _435
REMARK  179  A    between atoms: _435  and  _436
REMARK  180  A    between atoms: _436  and  _546
REMARK  181  A    between atoms: _437  and  _439
REMARK  182  A    between atoms: _439  and  _440
REMARK  183  A    between atoms: _439  and  _442
REMARK  184  A    between atoms: _442  and  _443
REMARK  185  A    between atoms: _443  and  _444
REMARK  186  A    between atoms: _449  and  _451
REMARK  187  A    between atoms: _451  and  _452
REMARK  188  A    between atoms: _454  and  _456
REMARK  189  A    between atoms: _456  and  _457
REMARK  190  A    between atoms: _456  and  _459
REMARK  191  A    between atoms: _459  and  _460
REMARK  192  A    between atoms: _463  and  _465
REMARK  193  A    between atoms: _465  and  _466
REMARK  194  A    between atoms: _465  and  _468
REMARK  195  A    between atoms: _468  and  _469
REMARK  196  A    between atoms: _471  and  _473
REMARK  197  A    between atoms: _473  and  _474
REMARK  198  A    between atoms: _476  and  _478
REMARK  199  A    between atoms: _478  and  _479
REMARK  200  A    between atoms: _481  and  _483
REMARK  201  A    between atoms: _483  and  _484
REMARK  202  A    between atoms: _483  and  _486
REMARK  203  A    between atoms: _489  and  _491
REMARK  204  A    between atoms: _491  and  _492
REMARK  205  A    between atoms: _491  and  _494
REMARK  206  A    between atoms: _494  and  _495
REMARK  207  A    between atoms: _497  and  _499
REMARK  208  A    between atoms: _499  and  _500
REMARK  209  A    between atoms: _499  and  _502
REMARK  210  A    between atoms: _502  and  _503
REMARK  211  A    between atoms: _513  and  _515
REMARK  212  A    between atoms: _515  and  _516
REMARK  213  A    between atoms: _518  and  _520
REMARK  214  A    between atoms: _520  and  _521
REMARK  215  A    between atoms: _520  and  _523
REMARK  216  A    between atoms: _523  and  _524
REMARK  217  A    between atoms: _524  and  _525
REMARK  218  A    between atoms: _525  and  _526
REMARK  219  A    between atoms: _535  and  _537
REMARK  220  A    between atoms: _537  and  _538
REMARK  221  A    between atoms: _540  and  _542
REMARK  222  A    between atoms: _542  and  _543
REMARK  223  A    between atoms: _542  and  _545
REMARK  224  A    between atoms: _547  and  _549
REMARK  225  A    between atoms: _549  and  _550
REMARK  226  A    between atoms: _553  and  _555
REMARK  227  A    between atoms: _555  and  _556
REMARK  228  A    between atoms: _555  and  _558
REMARK  229  A    between atoms: _558  and  _559
REMARK  230  A    between atoms: _562  and  _564
REMARK  231  A    between atoms: _564  and  _565
REMARK  232  A    between atoms: _564  and  _567
REMARK  233  A    between atoms: _567  and  _568
REMARK  234  A    between atoms: _568  and  _569
REMARK  235  A    between atoms: _569  and  _570
REMARK  236  A    between atoms: _570  and  _571
REMARK  237  A    between atoms: _576  and  _577
REMARK  238  A    between atoms: _582  and  _584
REMARK  239  A    between atoms: _584  and  _585
REMARK  240  A    between atoms: _587  and  _589
REMARK  241  A    between atoms: _589  and  _590
REMARK  242  A    between atoms: _589  and  _592
REMARK  243  A    between atoms: _595  and  _597
REMARK  244  A    between atoms: _597  and  _598
REMARK  245  A    between atoms: _597  and  _600
REMARK  246  A    between atoms: _600  and  _601
REMARK  247  A    between atoms: _606  and  _607
REMARK                            x       y       z     vdW  Elec       q    Type
REMARK                         _______ _______ _______ _____ _____    ______ ____
ROOT
ATOM      1  CA  SER A   1      -5.338 -33.323 -31.762  0.00  0.00    +0.163 C 
ENDROOT
BRANCH   1   2
ATOM      2  N   SER A   1      -6.566 -34.038 -31.359  0.00  0.00    -0.237 NA
ATOM      3  H   SER A   1      -6.582 -35.077 -31.399  0.00  0.00    +0.142 HD
ENDBRANCH   1   2
BRANCH   1   4
ATOM      4  CB  SER A   1      -5.593 -32.069 -32.574  0.00  0.00    +0.227 C 
ATOM      5  OG  SER A   1      -4.931 -31.046 -32.378  0.00  0.00    -0.287 OA
ENDBRANCH   1   4
BRANCH   1   6
ATOM      6  C   SER A   1      -4.428 -34.236 -32.594  0.00  0.00    +0.162 C 
BRANCH   6   7
ATOM      7  O   SER A   1      -3.396 -34.742 -31.793  0.00  0.00    -0.380 OA
ATOM      8  H   SER A   1      -3.785 -35.262 -31.046  0.00  0.00    +0.211 HD
ENDBRANCH   6   7
ENDBRANCH   1   6
TORSDOF 4
REMARK  Name = ../refined-set-2016/4zhl/4zhl_pocket.pdb
REMARK  247 active torsions:
REMARK  status: ('A' for Active; 'I' for Inactive)
REMARK    1  A    between atoms: _1  and  _5
REMARK    2  A    between atoms: _5  and  _6
REMARK    3  A    between atoms: _5  and  _8
REMARK    4  A    between atoms: _8  and  _9
REMARK    5  A    between atoms: _12  and  _14
REMARK    6  A    between atoms: _14  and  _15
REMARK    7  A    between atoms: _14  and  _17
REMARK    8  A    between atoms: _17  and  _18
REMARK    9  A    between atoms: _21  and  _23
REMARK   10  A    between atoms: _23  and  _24
REMARK   11  A    between atoms: _23  and  _26
REMARK   12  A    between atoms: _26  and  _27
REMARK   13  A    between atoms: _30  and  _32
REMARK   14  A    between atoms: _32  and  _33
REMARK   15  A    between atoms: _32  and  _35
REMARK   16  A    between atoms: _35  and  _36
REMARK   17  A    between atoms: _36  and  _37
REMARK   18  A    between atoms: _37  and  _38
REMARK   19  A    between atoms: _47  and  _49
REMARK   20  A    between atoms: _49  and  _50
REMARK   21  A    between atoms: _49  and  _52
REMARK   22  A    between atoms: _52  and  _53
REMARK   23  A    between atoms: _56  and  _58
REMARK   24  A    between atoms: _58  and  _59
REMARK   25  A    between atoms: _58  and  _61
REMARK   26  A    between atoms: _61  and  _62
REMARK   27  A    between atoms: _67  and  _68
REMARK   28  A    between atoms: _70  and  _72
REMARK   29  A    between atoms: _72  and  _73
REMARK   30  A    between atoms: _72  and  _75
REMARK   31  A    between atoms: _78  and  _80
REMARK   32  A    between atoms: _80  and  _81
REMARK   33  A    between atoms: _80  and  _83
REMARK   34  A    between atoms: _83  and  _84
REMARK   35  A    between atoms: _84  and  _122
REMARK   36  A    between atoms: _85  and  _87
REMARK   37  A    between atoms: _87  and  _88
REMARK   38  A    between atoms: _90  and  _92
REMARK   39  A    between atoms: _92  and  _93
REMARK   40  A    between atoms: _96  and  _98
REMARK   41  A    between atoms: _98  and  _99
REMARK   42  A    between atoms: _98  and  _101
REMARK   43  A    between atoms: _101  and  _102
REMARK   44  A    between atoms: _105  and  _107
REMARK   45  A    between atoms: _107  and  _108
REMARK   46  A    between atoms: _107  and  _110
REMARK   47  A    between atoms: _110  and  _111
REMARK   48  A    between atoms: _116  and  _118
REMARK   49  A    between atoms: _118  and  _119
REMARK   50  A    between atoms: _118  and  _121
REMARK   51  A    between atoms: _121  and  _122
REMARK   52  A    between atoms: _123  and  _125
REMARK   53  A    between atoms: _125  and  _126
REMARK   54  A    between atoms: _125  and  _128
REMARK   55  A    between atoms: _128  and  _129
REMARK   56  A    between atoms: _135  and  _137
REMARK   57  A    between atoms: _137  and  _138
REMARK   58  A    between atoms: _137  and  _140
REMARK   59  A    between atoms: _140  and  _141
REMARK   60  A    between atoms: _144  and  _146
REMARK   61  A    between atoms: _146  and  _147
REMARK   62  A    between atoms: _146  and  _149
REMARK   63  A    between atoms: _149  and  _150
REMARK   64  A    between atoms: _153  and  _155
REMARK   65  A    between atoms: _155  and  _156
REMARK   66  A    between atoms: _155  and  _158
REMARK   67  A    between atoms: _158  and  _159
REMARK   68  A    between atoms: _164  and  _165
REMARK   69  A    between atoms: _167  and  _169
REMARK   70  A    between atoms: _169  and  _170
REMARK   71  A    between atoms: _169  and  _172
REMARK   72  A    between atoms: _172  and  _173
REMARK   73  A    between atoms: _178  and  _179
REMARK   74  A    between atoms: _181  and  _183
REMARK   75  A    between atoms: _183  and  _184
REMARK   76  A    between atoms: _183  and  _186
REMARK   77  A    between atoms: _186  and  _187
REMARK   78  A    between atoms: _190  and  _192
REMARK   79  A    between atoms: _192  and  _193
REMARK   80  A    between atoms: _192  and  _195
REMARK   81  A    between atoms: _195  and  _196
REMARK   82  A    between atoms: _201  and  _202
REMARK   83  A    between atoms: _204  and  _206
REMARK   84  A    between atoms: _206  and  _207
REMARK   85  A    between atoms: _206  and  _209
REMARK   86  A    between atoms: _209  and  _210
REMARK   87  A    between atoms: _212  and  _214
REMARK   88  A    between atoms: _214  and  _215
REMARK   89  A    between atoms: _218  and  _220
REMARK   90  A    between atoms: _220  and  _221
REMARK   91  A    between atoms: _220  and  _223
REMARK   92  A    between atoms: _223  and  _224
REMARK   93  A    between atoms: _227  and  _229
REMARK   94  A    between atoms: _229  and  _230
REMARK   95  A    between atoms: _229  and  _232
REMARK   96  A    between atoms: _232  and  _233
REMARK   97  A    between atoms: _236  and  _238
REMARK   98  A    between atoms: _238  and  _239
REMARK   99  A    between atoms: _238  and  _241
REMARK  100  A    between atoms: _241  and  _242
REMARK  101  A    between atoms: _245  and  _247
REMARK  102  A    between atoms: _247  and  _248
REMARK  103  A    between atoms: _251  and  _253
REMARK  104  A    between atoms: _253  and  _254
REMARK  105  A    between atoms: _253  and  _256
REMARK  106  A    between atoms: _256  and  _257
REMARK  107  A    between atoms: _262  and  _263
REMARK  108  A    between atoms: _265  and  _267
REMARK  109  A    between atoms: _267  and  _268
REMARK  110  A    between atoms: _267  and  _270
REMARK  111  A    between atoms: _270  and  _271
REMARK  112  A    between atoms: _276  and  _278
REMARK  113  A    between atoms: _278  and  _279
REMARK  114  A    between atoms: _278  and  _281
REMARK  115  A    between atoms: _281  and  _282
REMARK  116  A    between atoms: _285  and  _287
REMARK  117  A    between atoms: _287  and  _288
REMARK  118  A    between atoms: _287  and  _290
REMARK  119  A    between atoms: _290  and  _291
REMARK  120  A    between atoms: _294  and  _296
REMARK  121  A    between atoms: _296  and  _297
REMARK  122  A    between atoms: _296  and  _299
REMARK  123  A    between atoms: _299  and  _300
REMARK  124  A    between atoms: _306  and  _308
REMARK  125  A    between atoms: _308  and  _309
REMARK  126  A    between atoms: _311  and  _313
REMARK  127  A    between atoms: _313  and  _314
REMARK  128  A    between atoms: _313  and  _316
REMARK  129  A    between atoms: _316  and  _317
REMARK  130  A    between atoms: _317  and  _318
REMARK  131  A    between atoms: _318  and  _319
REMARK  132  A    between atoms: _319  and  _320
REMARK  133  A    between atoms: _324  and  _326
REMARK  134  A    between atoms: _326  and  _327
REMARK  135  A    between atoms: _326  and  _329
REMARK  136  A    between atoms: _329  and  _330
REMARK  137  A    between atoms: _332  and  _334
REMARK  138  A    between atoms: _334  and  _335
REMARK  139  A    between atoms: _334  and  _337
REMARK  140  A    between atoms: _337  and  _338
REMARK  141  A    between atoms: _343  and  _344
REMARK  142  A    between atoms: _346  and  _348
REMARK  143  A    between atoms: _348  and  _349
REMARK  144  A    between atoms: _348  and  _351
REMARK  145  A    between atoms: _354  and  _356
REMARK  146  A    between atoms: _356  and  _357
REMARK  147  A    between atoms: _356  and  _359
REMARK  148  A    between atoms: _359  and  _360
REMARK  149  A    between atoms: _365  and  _366
REMARK  150  A    between atoms: _368  and  _370
REMARK  151  A    between atoms: _370  and  _371
REMARK  152  A    between atoms: _370  and  _373
REMARK  153  A    between atoms: _373  and  _374
REMARK  154  A    between atoms: _379  and  _380
REMARK  155  A    between atoms: _382  and  _384
REMARK  156  A    between atoms: _384  and  _385
REMARK  157  A    between atoms: _384  and  _387
REMARK  158  A    between atoms: _387  and  _388
REMARK  159  A    between atoms: _388  and  _389
REMARK  160  A    between atoms: _392  and  _394
REMARK  161  A    between atoms: _394  and  _395
REMARK  162  A    between atoms: _398  and  _400
REMARK  163  A    between atoms: _400  and  _401
REMARK  164  A    between atoms: _404  and  _406
REMARK  165  A    between atoms: _406  and  _407
REMARK  166  A    between atoms: _406  and  _409
REMARK  167  A    between atoms: _409  and  _410
REMARK  168  A    between atoms: _413  and  _415
REMARK  169  A    between atoms: _415  and  _416
REMARK  170  A    between atoms: _415  and  _418
REMARK  171  A    between atoms: _418  and  _419
REMARK  172  A    between atoms: _422  and  _424
REMARK  173  A    between atoms: _424  and  _425
REMARK  174  A    between atoms: _424  and  _427
REMARK  175  A    between atoms: _427  and  _428
REMARK  176  A    between atoms: _430  and  _432
REMARK  177  A    between atoms: _432  and  _433
REMARK  178  A    between atoms: _432  and  _435
REMARK  179  A    between atoms: _435  and  _436
REMARK  180  A    between atoms: _436  and  _546
REMARK  181  A    between atoms: _437  and  _439
REMARK  182  A    between atoms: _439  and  _440
REMARK  183  A    between atoms: _439  and  _442
REMARK  184  A    between atoms: _442  and  _443
REMARK  185  A    between atoms: _443  and  _444
REMARK  186  A    between atoms: _449  and  _451
REMARK  187  A    between atoms: _451  and  _452
REMARK  188  A    between atoms: _454  and  _456
REMARK  189  A    between atoms: _456  and  _457
REMARK  190  A    between atoms: _456  and  _459
REMARK  191  A    between atoms: _459  and  _460
REMARK  192  A    between atoms: _463  and  _465
REMARK  193  A    between atoms: _465  and  _466
REMARK  194  A    between atoms: _465  and  _468
REMARK  195  A    between atoms: _468  and  _469
REMARK  196  A    between atoms: _471  and  _473
REMARK  197  A    between atoms: _473  and  _474
REMARK  198  A    between atoms: _476  and  _478
REMARK  199  A    between atoms: _478  and  _479
REMARK  200  A    between atoms: _481  and  _483
REMARK  201  A    between atoms: _483  and  _484
REMARK  202  A    between atoms: _483  and  _486
REMARK  203  A    between atoms: _489  and  _491
REMARK  204  A    between atoms: _491  and  _492
REMARK  205  A    between atoms: _491  and  _494
REMARK  206  A    between atoms: _494  and  _495
REMARK  207  A    between atoms: _497  and  _499
REMARK  208  A    between atoms: _499  and  _500
REMARK  209  A    between atoms: _499  and  _502
REMARK  210  A    between atoms: _502  and  _503
REMARK  211  A    between atoms: _513  and  _515
REMARK  212  A    between atoms: _515  and  _516
REMARK  213  A    between atoms: _518  and  _520
REMARK  214  A    between atoms: _520  and  _521
REMARK  215  A    between atoms: _520  and  _523
REMARK  216  A    between atoms: _523  and  _524
REMARK  217  A    between atoms: _524  and  _525
REMARK  218  A    between atoms: _525  and  _526
REMARK  219  A    between atoms: _535  and  _537
REMARK  220  A    between atoms: _537  and  _538
REMARK  221  A    between atoms: _540  and  _542
REMARK  222  A    between atoms: _542  and  _543
REMARK  223  A    between atoms: _542  and  _545
REMARK  224  A    between atoms: _547  and  _549
REMARK  225  A    between atoms: _549  and  _550
REMARK  226  A    between atoms: _553  and  _555
REMARK  227  A    between atoms: _555  and  _556
REMARK  228  A    between atoms: _555  and  _558
REMARK  229  A    between atoms: _558  and  _559
REMARK  230  A    between atoms: _562  and  _564
REMARK  231  A    between atoms: _564  and  _565
REMARK  232  A    between atoms: _564  and  _567
REMARK  233  A    between atoms: _567  and  _568
REMARK  234  A    between atoms: _568  and  _569
REMARK  235  A    between atoms: _569  and  _570
REMARK  236  A    between atoms: _570  and  _571
REMARK  237  A    between atoms: _576  and  _577
REMARK  238  A    between atoms: _582  and  _584
REMARK  239  A    between atoms: _584  and  _585
REMARK  240  A    between atoms: _587  and  _589
REMARK  241  A    between atoms: _589  and  _590
REMARK  242  A    between atoms: _589  and  _592
REMARK  243  A    between atoms: _595  and  _597
REMARK  244  A    between atoms: _597  and  _598
REMARK  245  A    between atoms: _597  and  _600
REMARK  246  A    between atoms: _600  and  _601
REMARK  247  A    between atoms: _606  and  _607
REMARK                            x       y       z     vdW  Elec       q    Type
REMARK                         _______ _______ _______ _____ _____    ______ ____
ROOT
ATOM      1  CG  TYR A   1      -8.550 -26.444 -24.649  0.00  0.00    -0.020 A 
ATOM      2  CD2 TYR A   1      -7.592 -27.418 -24.406  0.00  0.00    -0.001 A 
ATOM      3  CE2 TYR A   1      -6.299 -27.287 -24.882  0.00  0.00    +0.036 A 
ATOM      4  CZ  TYR A   1      -5.949 -26.165 -25.609  0.00  0.00    +0.134 A 
ATOM      5  CE1 TYR A   1      -6.882 -25.178 -25.859  0.00  0.00    +0.036 A 
ATOM      6  CD1 TYR A   1      -8.174 -25.324 -25.378  0.00  0.00    -0.001 A 
ENDROOT
BRANCH   4   7
ATOM      7  OH  TYR A   1      -4.672 -26.020 -26.095  0.00  0.00    -0.506 OA
ATOM      8  HH  TYR A   1      -4.603 -25.164 -26.587  0.00  0.00    +0.292 HD
ENDBRANCH   4   7
BRANCH   1   9
ATOM      9  CB  TYR A   1      -9.958 -26.586 -24.133  0.00  0.00    +0.051 C 
BRANCH   9  10
ATOM     10  CA  TYR A   1     -10.911 -27.100 -25.211  0.00  0.00    +0.137 C 
BRANCH  10  11
ATOM     11  N   TYR A   1     -11.037 -26.130 -26.291  0.00  0.00    -0.239 NA
ATOM     12  H   TYR A   1     -11.332 -25.159 -26.061  0.00  0.00    +0.142 HD
ENDBRANCH  10  11
BRANCH  10  13
ATOM     13  C   TYR A   1     -12.288 -27.368 -24.627  0.00  0.00    +0.224 C 
ATOM     14  O   TYR A   1     -13.167 -26.504 -24.696  0.00  0.00    -0.287 OA
ENDBRANCH  10  13
ENDBRANCH   9  10
ENDBRANCH   1   9
TORSDOF 5
REMARK  Name = ../refined-set-2016/4zhl/4zhl_pocket.pdb
REMARK  247 active torsions:
REMARK  status: ('A' for Active; 'I' for Inactive)
REMARK    1  A    between atoms: _1  and  _5
REMARK    2  A    between atoms: _5  and  _6
REMARK    3  A    between atoms: _5  and  _8
REMARK    4  A    between atoms: _8  and  _9
REMARK    5  A    between atoms: _12  and  _14
REMARK    6  A    between atoms: _14  and  _15
REMARK    7  A    between atoms: _14  and  _17
REMARK    8  A    between atoms: _17  and  _18
REMARK    9  A    between atoms: _21  and  _23
REMARK   10  A    between atoms: _23  and  _24
REMARK   11  A    between atoms: _23  and  _26
REMARK   12  A    between atoms: _26  and  _27
REMARK   13  A    between atoms: _30  and  _32
REMARK   14  A    between atoms: _32  and  _33
REMARK   15  A    between atoms: _32  and  _35
REMARK   16  A    between atoms: _35  and  _36
REMARK   17  A    between atoms: _36  and  _37
REMARK   18  A    between atoms: _37  and  _38
REMARK   19  A    between atoms: _47  and  _49
REMARK   20  A    between atoms: _49  and  _50
REMARK   21  A    between atoms: _49  and  _52
REMARK   22  A    between atoms: _52  and  _53
REMARK   23  A    between atoms: _56  and  _58
REMARK   24  A    between atoms: _58  and  _59
REMARK   25  A    between atoms: _58  and  _61
REMARK   26  A    between atoms: _61  and  _62
REMARK   27  A    between atoms: _67  and  _68
REMARK   28  A    between atoms: _70  and  _72
REMARK   29  A    between atoms: _72  and  _73
REMARK   30  A    between atoms: _72  and  _75
REMARK   31  A    between atoms: _78  and  _80
REMARK   32  A    between atoms: _80  and  _81
REMARK   33  A    between atoms: _80  and  _83
REMARK   34  A    between atoms: _83  and  _84
REMARK   35  A    between atoms: _84  and  _122
REMARK   36  A    between atoms: _85  and  _87
REMARK   37  A    between atoms: _87  and  _88
REMARK   38  A    between atoms: _90  and  _92
REMARK   39  A    between atoms: _92  and  _93
REMARK   40  A    between atoms: _96  and  _98
REMARK   41  A    between atoms: _98  and  _99
REMARK   42  A    between atoms: _98  and  _101
REMARK   43  A    between atoms: _101  and  _102
REMARK   44  A    between atoms: _105  and  _107
REMARK   45  A    between atoms: _107  and  _108
REMARK   46  A    between atoms: _107  and  _110
REMARK   47  A    between atoms: _110  and  _111
REMARK   48  A    between atoms: _116  and  _118
REMARK   49  A    between atoms: _118  and  _119
REMARK   50  A    between atoms: _118  and  _121
REMARK   51  A    between atoms: _121  and  _122
REMARK   52  A    between atoms: _123  and  _125
REMARK   53  A    between atoms: _125  and  _126
REMARK   54  A    between atoms: _125  and  _128
REMARK   55  A    between atoms: _128  and  _129
REMARK   56  A    between atoms: _135  and  _137
REMARK   57  A    between atoms: _137  and  _138
REMARK   58  A    between atoms: _137  and  _140
REMARK   59  A    between atoms: _140  and  _141
REMARK   60  A    between atoms: _144  and  _146
REMARK   61  A    between atoms: _146  and  _147
REMARK   62  A    between atoms: _146  and  _149
REMARK   63  A    between atoms: _149  and  _150
REMARK   64  A    between atoms: _153  and  _155
REMARK   65  A    between atoms: _155  and  _156
REMARK   66  A    between atoms: _155  and  _158
REMARK   67  A    between atoms: _158  and  _159
REMARK   68  A    between atoms: _164  and  _165
REMARK   69  A    between atoms: _167  and  _169
REMARK   70  A    between atoms: _169  and  _170
REMARK   71  A    between atoms: _169  and  _172
REMARK   72  A    between atoms: _172  and  _173
REMARK   73  A    between atoms: _178  and  _179
REMARK   74  A    between atoms: _181  and  _183
REMARK   75  A    between atoms: _183  and  _184
REMARK   76  A    between atoms: _183  and  _186
REMARK   77  A    between atoms: _186  and  _187
REMARK   78  A    between atoms: _190  and  _192
REMARK   79  A    between atoms: _192  and  _193
REMARK   80  A    between atoms: _192  and  _195
REMARK   81  A    between atoms: _195  and  _196
REMARK   82  A    between atoms: _201  and  _202
REMARK   83  A    between atoms: _204  and  _206
REMARK   84  A    between atoms: _206  and  _207
REMARK   85  A    between atoms: _206  and  _209
REMARK   86  A    between atoms: _209  and  _210
REMARK   87  A    between atoms: _212  and  _214
REMARK   88  A    between atoms: _214  and  _215
REMARK   89  A    between atoms: _218  and  _220
REMARK   90  A    between atoms: _220  and  _221
REMARK   91  A    between atoms: _220  and  _223
REMARK   92  A    between atoms: _223  and  _224
REMARK   93  A    between atoms: _227  and  _229
REMARK   94  A    between atoms: _229  and  _230
REMARK   95  A    between atoms: _229  and  _232
REMARK   96  A    between atoms: _232  and  _233
REMARK   97  A    between atoms: _236  and  _238
REMARK   98  A    between atoms: _238  and  _239
REMARK   99  A    between atoms: _238  and  _241
REMARK  100  A    between atoms: _241  and  _242
REMARK  101  A    between atoms: _245  and  _247
REMARK  102  A    between atoms: _247  and  _248
REMARK  103  A    between atoms: _251  and  _253
REMARK  104  A    between atoms: _253  and  _254
REMARK  105  A    between atoms: _253  and  _256
REMARK  106  A    between atoms: _256  and  _257
REMARK  107  A    between atoms: _262  and  _263
REMARK  108  A    between atoms: _265  and  _267
REMARK  109  A    between atoms: _267  and  _268
REMARK  110  A    between atoms: _267  and  _270
REMARK  111  A    between atoms: _270  and  _271
REMARK  112  A    between atoms: _276  and  _278
REMARK  113  A    between atoms: _278  and  _279
REMARK  114  A    between atoms: _278  and  _281
REMARK  115  A    between atoms: _281  and  _282
REMARK  116  A    between atoms: _285  and  _287
REMARK  117  A    between atoms: _287  and  _288
REMARK  118  A    between atoms: _287  and  _290
REMARK  119  A    between atoms: _290  and  _291
REMARK  120  A    between atoms: _294  and  _296
REMARK  121  A    between atoms: _296  and  _297
REMARK  122  A    between atoms: _296  and  _299
REMARK  123  A    between atoms: _299  and  _300
REMARK  124  A    between atoms: _306  and  _308
REMARK  125  A    between atoms: _308  and  _309
REMARK  126  A    between atoms: _311  and  _313
REMARK  127  A    between atoms: _313  and  _314
REMARK  128  A    between atoms: _313  and  _316
REMARK  129  A    between atoms: _316  and  _317
REMARK  130  A    between atoms: _317  and  _318
REMARK  131  A    between atoms: _318  and  _319
REMARK  132  A    between atoms: _319  and  _320
REMARK  133  A    between atoms: _324  and  _326
REMARK  134  A    between atoms: _326  and  _327
REMARK  135  A    between atoms: _326  and  _329
REMARK  136  A    between atoms: _329  and  _330
REMARK  137  A    between atoms: _332  and  _334
REMARK  138  A    between atoms: _334  and  _335
REMARK  139  A    between atoms: _334  and  _337
REMARK  140  A    between atoms: _337  and  _338
REMARK  141  A    between atoms: _343  and  _344
REMARK  142  A    between atoms: _346  and  _348
REMARK  143  A    between atoms: _348  and  _349
REMARK  144  A    between atoms: _348  and  _351
REMARK  145  A    between atoms: _354  and  _356
REMARK  146  A    between atoms: _356  and  _357
REMARK  147  A    between atoms: _356  and  _359
REMARK  148  A    between atoms: _359  and  _360
REMARK  149  A    between atoms: _365  and  _366
REMARK  150  A    between atoms: _368  and  _370
REMARK  151  A    between atoms: _370  and  _371
REMARK  152  A    between atoms: _370  and  _373
REMARK  153  A    between atoms: _373  and  _374
REMARK  154  A    between atoms: _379  and  _380
REMARK  155  A    between atoms: _382  and  _384
REMARK  156  A    between atoms: _384  and  _385
REMARK  157  A    between atoms: _384  and  _387
REMARK  158  A    between atoms: _387  and  _388
REMARK  159  A    between atoms: _388  and  _389
REMARK  160  A    between atoms: _392  and  _394
REMARK  161  A    between atoms: _394  and  _395
REMARK  162  A    between atoms: _398  and  _400
REMARK  163  A    between atoms: _400  and  _401
REMARK  164  A    between atoms: _404  and  _406
REMARK  165  A    between atoms: _406  and  _407
REMARK  166  A    between atoms: _406  and  _409
REMARK  167  A    between atoms: _409  and  _410
REMARK  168  A    between atoms: _413  and  _415
REMARK  169  A    between atoms: _415  and  _416
REMARK  170  A    between atoms: _415  and  _418
REMARK  171  A    between atoms: _418  and  _419
REMARK  172  A    between atoms: _422  and  _424
REMARK  173  A    between atoms: _424  and  _425
REMARK  174  A    between atoms: _424  and  _427
REMARK  175  A    between atoms: _427  and  _428
REMARK  176  A    between atoms: _430  and  _432
REMARK  177  A    between atoms: _432  and  _433
REMARK  178  A    between atoms: _432  and  _435
REMARK  179  A    between atoms: _435  and  _436
REMARK  180  A    between atoms: _436  and  _546
REMARK  181  A    between atoms: _437  and  _439
REMARK  182  A    between atoms: _439  and  _440
REMARK  183  A    between atoms: _439  and  _442
REMARK  184  A    between atoms: _442  and  _443
REMARK  185  A    between atoms: _443  and  _444
REMARK  186  A    between atoms: _449  and  _451
REMARK  187  A    between atoms: _451  and  _452
REMARK  188  A    between atoms: _454  and  _456
REMARK  189  A    between atoms: _456  and  _457
REMARK  190  A    between atoms: _456  and  _459
REMARK  191  A    between atoms: _459  and  _460
REMARK  192  A    between atoms: _463  and  _465
REMARK  193  A    between atoms: _465  and  _466
REMARK  194  A    between atoms: _465  and  _468
REMARK  195  A    between atoms: _468  and  _469
REMARK  196  A    between atoms: _471  and  _473
REMARK  197  A    between atoms: _473  and  _474
REMARK  198  A    between atoms: _476  and  _478
REMARK  199  A    between atoms: _478  and  _479
REMARK  200  A    between atoms: _481  and  _483
REMARK  201  A    between atoms: _483  and  _484
REMARK  202  A    between atoms: _483  and  _486
REMARK  203  A    between atoms: _489  and  _491
REMARK  204  A    between atoms: _491  and  _492
REMARK  205  A    between atoms: _491  and  _494
REMARK  206  A    between atoms: _494  and  _495
REMARK  207  A    between atoms: _497  and  _499
REMARK  208  A    between atoms: _499  and  _500
REMARK  209  A    between atoms: _499  and  _502
REMARK  210  A    between atoms: _502  and  _503
REMARK  211  A    between atoms: _513  and  _515
REMARK  212  A    between atoms: _515  and  _516
REMARK  213  A    between atoms: _518  and  _520
REMARK  214  A    between atoms: _520  and  _521
REMARK  215  A    between atoms: _520  and  _523
REMARK  216  A    between atoms: _523  and  _524
REMARK  217  A    between atoms: _524  and  _525
REMARK  218  A    between atoms: _525  and  _526
REMARK  219  A    between atoms: _535  and  _537
REMARK  220  A    between atoms: _537  and  _538
REMARK  221  A    between atoms: _540  and  _542
REMARK  222  A    between atoms: _542  and  _543
REMARK  223  A    between atoms: _542  and  _545
REMARK  224  A    between atoms: _547  and  _549
REMARK  225  A    between atoms: _549  and  _550
REMARK  226  A    between atoms: _553  and  _555
REMARK  227  A    between atoms: _555  and  _556
REMARK  228  A    between atoms: _555  and  _558
REMARK  229  A    between atoms: _558  and  _559
REMARK  230  A    between atoms: _562  and  _564
REMARK  231  A    between atoms: _564  and  _565
REMARK  232  A    between atoms: _564  and  _567
REMARK  233  A    between atoms: _567  and  _568
REMARK  234  A    between atoms: _568  and  _569
REMARK  235  A    between atoms: _569  and  _570
REMARK  236  A    between atoms: _570  and  _571
REMARK  237  A    between atoms: _576  and  _577
REMARK  238  A    between atoms: _582  and  _584
REMARK  239  A    between atoms: _584  and  _585
REMARK  240  A    between atoms: _587  and  _589
REMARK  241  A    between atoms: _589  and  _590
REMARK  242  A    between atoms: _589  and  _592
REMARK  243  A    between atoms: _595  and  _597
REMARK  244  A    between atoms: _597  and  _598
REMARK  245  A    between atoms: _597  and  _600
REMARK  246  A    between atoms: _600  and  _601
REMARK  247  A    between atoms: _606  and  _607
REMARK                            x       y       z     vdW  Elec       q    Type
REMARK                         _______ _______ _______ _____ _____    ______ ____
ROOT
ATOM      1  CA  VAL A   1      -5.066 -46.410 -20.378  0.00  0.00    +0.133 C 
ENDROOT
BRANCH   1   2
ATOM      2  CB  VAL A   1      -4.122 -45.259 -20.782  0.00  0.00    +0.023 C 
ATOM      3  CG2 VAL A   1      -3.797 -44.373 -19.586  0.00  0.00    +0.002 C 
ATOM      4  CG1 VAL A   1      -4.735 -44.459 -21.924  0.00  0.00    +0.002 C 
ENDBRANCH   1   2
BRANCH   1   5
ATOM      5  N   VAL A   1      -6.175 -45.953 -19.546  0.00  0.00    -0.239 NA
ATOM      6  H   VAL A   1      -5.986 -45.734 -18.547  0.00  0.00    +0.142 HD
ENDBRANCH   1   5
BRANCH   1   7
ATOM      7  C   VAL A   1      -4.286 -47.465 -19.602  0.00  0.00    +0.224 C 
ATOM      8  O   VAL A   1      -4.388 -47.544 -18.371  0.00  0.00    -0.287 OA
ENDBRANCH   1   7
TORSDOF 3
REMARK  Name = ../refined-set-2016/4zhl/4zhl_pocket.pdb
REMARK  247 active torsions:
REMARK  status: ('A' for Active; 'I' for Inactive)
REMARK    1  A    between atoms: _1  and  _5
REMARK    2  A    between atoms: _5  and  _6
REMARK    3  A    between atoms: _5  and  _8
REMARK    4  A    between atoms: _8  and  _9
REMARK    5  A    between atoms: _12  and  _14
REMARK    6  A    between atoms: _14  and  _15
REMARK    7  A    between atoms: _14  and  _17
REMARK    8  A    between atoms: _17  and  _18
REMARK    9  A    between atoms: _21  and  _23
REMARK   10  A    between atoms: _23  and  _24
REMARK   11  A    between atoms: _23  and  _26
REMARK   12  A    between atoms: _26  and  _27
REMARK   13  A    between atoms: _30  and  _32
REMARK   14  A    between atoms: _32  and  _33
REMARK   15  A    between atoms: _32  and  _35
REMARK   16  A    between atoms: _35  and  _36
REMARK   17  A    between atoms: _36  and  _37
REMARK   18  A    between atoms: _37  and  _38
REMARK   19  A    between atoms: _47  and  _49
REMARK   20  A    between atoms: _49  and  _50
REMARK   21  A    between atoms: _49  and  _52
REMARK   22  A    between atoms: _52  and  _53
REMARK   23  A    between atoms: _56  and  _58
REMARK   24  A    between atoms: _58  and  _59
REMARK   25  A    between atoms: _58  and  _61
REMARK   26  A    between atoms: _61  and  _62
REMARK   27  A    between atoms: _67  and  _68
REMARK   28  A    between atoms: _70  and  _72
REMARK   29  A    between atoms: _72  and  _73
REMARK   30  A    between atoms: _72  and  _75
REMARK   31  A    between atoms: _78  and  _80
REMARK   32  A    between atoms: _80  and  _81
REMARK   33  A    between atoms: _80  and  _83
REMARK   34  A    between atoms: _83  and  _84
REMARK   35  A    between atoms: _84  and  _122
REMARK   36  A    between atoms: _85  and  _87
REMARK   37  A    between atoms: _87  and  _88
REMARK   38  A    between atoms: _90  and  _92
REMARK   39  A    between atoms: _92  and  _93
REMARK   40  A    between atoms: _96  and  _98
REMARK   41  A    between atoms: _98  and  _99
REMARK   42  A    between atoms: _98  and  _101
REMARK   43  A    between atoms: _101  and  _102
REMARK   44  A    between atoms: _105  and  _107
REMARK   45  A    between atoms: _107  and  _108
REMARK   46  A    between atoms: _107  and  _110
REMARK   47  A    between atoms: _110  and  _111
REMARK   48  A    between atoms: _116  and  _118
REMARK   49  A    between atoms: _118  and  _119
REMARK   50  A    between atoms: _118  and  _121
REMARK   51  A    between atoms: _121  and  _122
REMARK   52  A    between atoms: _123  and  _125
REMARK   53  A    between atoms: _125  and  _126
REMARK   54  A    between atoms: _125  and  _128
REMARK   55  A    between atoms: _128  and  _129
REMARK   56  A    between atoms: _135  and  _137
REMARK   57  A    between atoms: _137  and  _138
REMARK   58  A    between atoms: _137  and  _140
REMARK   59  A    between atoms: _140  and  _141
REMARK   60  A    between atoms: _144  and  _146
REMARK   61  A    between atoms: _146  and  _147
REMARK   62  A    between atoms: _146  and  _149
REMARK   63  A    between atoms: _149  and  _150
REMARK   64  A    between atoms: _153  and  _155
REMARK   65  A    between atoms: _155  and  _156
REMARK   66  A    between atoms: _155  and  _158
REMARK   67  A    between atoms: _158  and  _159
REMARK   68  A    between atoms: _164  and  _165
REMARK   69  A    between atoms: _167  and  _169
REMARK   70  A    between atoms: _169  and  _170
REMARK   71  A    between atoms: _169  and  _172
REMARK   72  A    between atoms: _172  and  _173
REMARK   73  A    between atoms: _178  and  _179
REMARK   74  A    between atoms: _181  and  _183
REMARK   75  A    between atoms: _183  and  _184
REMARK   76  A    between atoms: _183  and  _186
REMARK   77  A    between atoms: _186  and  _187
REMARK   78  A    between atoms: _190  and  _192
REMARK   79  A    between atoms: _192  and  _193
REMARK   80  A    between atoms: _192  and  _195
REMARK   81  A    between atoms: _195  and  _196
REMARK   82  A    between atoms: _201  and  _202
REMARK   83  A    between atoms: _204  and  _206
REMARK   84  A    between atoms: _206  and  _207
REMARK   85  A    between atoms: _206  and  _209
REMARK   86  A    between atoms: _209  and  _210
REMARK   87  A    between atoms: _212  and  _214
REMARK   88  A    between atoms: _214  and  _215
REMARK   89  A    between atoms: _218  and  _220
REMARK   90  A    between atoms: _220  and  _221
REMARK   91  A    between atoms: _220  and  _223
REMARK   92  A    between atoms: _223  and  _224
REMARK   93  A    between atoms: _227  and  _229
REMARK   94  A    between atoms: _229  and  _230
REMARK   95  A    between atoms: _229  and  _232
REMARK   96  A    between atoms: _232  and  _233
REMARK   97  A    between atoms: _236  and  _238
REMARK   98  A    between atoms: _238  and  _239
REMARK   99  A    between atoms: _238  and  _241
REMARK  100  A    between atoms: _241  and  _242
REMARK  101  A    between atoms: _245  and  _247
REMARK  102  A    between atoms: _247  and  _248
REMARK  103  A    between atoms: _251  and  _253
REMARK  104  A    between atoms: _253  and  _254
REMARK  105  A    between atoms: _253  and  _256
REMARK  106  A    between atoms: _256  and  _257
REMARK  107  A    between atoms: _262  and  _263
REMARK  108  A    between atoms: _265  and  _267
REMARK  109  A    between atoms: _267  and  _268
REMARK  110  A    between atoms: _267  and  _270
REMARK  111  A    between atoms: _270  and  _271
REMARK  112  A    between atoms: _276  and  _278
REMARK  113  A    between atoms: _278  and  _279
REMARK  114  A    between atoms: _278  and  _281
REMARK  115  A    between atoms: _281  and  _282
REMARK  116  A    between atoms: _285  and  _287
REMARK  117  A    between atoms: _287  and  _288
REMARK  118  A    between atoms: _287  and  _290
REMARK  119  A    between atoms: _290  and  _291
REMARK  120  A    between atoms: _294  and  _296
REMARK  121  A    between atoms: _296  and  _297
REMARK  122  A    between atoms: _296  and  _299
REMARK  123  A    between atoms: _299  and  _300
REMARK  124  A    between atoms: _306  and  _308
REMARK  125  A    between atoms: _308  and  _309
REMARK  126  A    between atoms: _311  and  _313
REMARK  127  A    between atoms: _313  and  _314
REMARK  128  A    between atoms: _313  and  _316
REMARK  129  A    between atoms: _316  and  _317
REMARK  130  A    between atoms: _317  and  _318
REMARK  131  A    between atoms: _318  and  _319
REMARK  132  A    between atoms: _319  and  _320
REMARK  133  A    between atoms: _324  and  _326
REMARK  134  A    between atoms: _326  and  _327
REMARK  135  A    between atoms: _326  and  _329
REMARK  136  A    between atoms: _329  and  _330
REMARK  137  A    between atoms: _332  and  _334
REMARK  138  A    between atoms: _334  and  _335
REMARK  139  A    between atoms: _334  and  _337
REMARK  140  A    between atoms: _337  and  _338
REMARK  141  A    between atoms: _343  and  _344
REMARK  142  A    between atoms: _346  and  _348
REMARK  143  A    between atoms: _348  and  _349
REMARK  144  A    between atoms: _348  and  _351
REMARK  145  A    between atoms: _354  and  _356
REMARK  146  A    between atoms: _356  and  _357
REMARK  147  A    between atoms: _356  and  _359
REMARK  148  A    between atoms: _359  and  _360
REMARK  149  A    between atoms: _365  and  _366
REMARK  150  A    between atoms: _368  and  _370
REMARK  151  A    between atoms: _370  and  _371
REMARK  152  A    between atoms: _370  and  _373
REMARK  153  A    between atoms: _373  and  _374
REMARK  154  A    between atoms: _379  and  _380
REMARK  155  A    between atoms: _382  and  _384
REMARK  156  A    between atoms: _384  and  _385
REMARK  157  A    between atoms: _384  and  _387
REMARK  158  A    between atoms: _387  and  _388
REMARK  159  A    between atoms: _388  and  _389
REMARK  160  A    between atoms: _392  and  _394
REMARK  161  A    between atoms: _394  and  _395
REMARK  162  A    between atoms: _398  and  _400
REMARK  163  A    between atoms: _400  and  _401
REMARK  164  A    between atoms: _404  and  _406
REMARK  165  A    between atoms: _406  and  _407
REMARK  166  A    between atoms: _406  and  _409
REMARK  167  A    between atoms: _409  and  _410
REMARK  168  A    between atoms: _413  and  _415
REMARK  169  A    between atoms: _415  and  _416
REMARK  170  A    between atoms: _415  and  _418
REMARK  171  A    between atoms: _418  and  _419
REMARK  172  A    between atoms: _422  and  _424
REMARK  173  A    between atoms: _424  and  _425
REMARK  174  A    between atoms: _424  and  _427
REMARK  175  A    between atoms: _427  and  _428
REMARK  176  A    between atoms: _430  and  _432
REMARK  177  A    between atoms: _432  and  _433
REMARK  178  A    between atoms: _432  and  _435
REMARK  179  A    between atoms: _435  and  _436
REMARK  180  A    between atoms: _436  and  _546
REMARK  181  A    between atoms: _437  and  _439
REMARK  182  A    between atoms: _439  and  _440
REMARK  183  A    between atoms: _439  and  _442
REMARK  184  A    between atoms: _442  and  _443
REMARK  185  A    between atoms: _443  and  _444
REMARK  186  A    between atoms: _449  and  _451
REMARK  187  A    between atoms: _451  and  _452
REMARK  188  A    between atoms: _454  and  _456
REMARK  189  A    between atoms: _456  and  _457
REMARK  190  A    between atoms: _456  and  _459
REMARK  191  A    between atoms: _459  and  _460
REMARK  192  A    between atoms: _463  and  _465
REMARK  193  A    between atoms: _465  and  _466
REMARK  194  A    between atoms: _465  and  _468
REMARK  195  A    between atoms: _468  and  _469
REMARK  196  A    between atoms: _471  and  _473
REMARK  197  A    between atoms: _473  and  _474
REMARK  198  A    between atoms: _476  and  _478
REMARK  199  A    between atoms: _478  and  _479
REMARK  200  A    between atoms: _481  and  _483
REMARK  201  A    between atoms: _483  and  _484
REMARK  202  A    between atoms: _483  and  _486
REMARK  203  A    between atoms: _489  and  _491
REMARK  204  A    between atoms: _491  and  _492
REMARK  205  A    between atoms: _491  and  _494
REMARK  206  A    between atoms: _494  and  _495
REMARK  207  A    between atoms: _497  and  _499
REMARK  208  A    between atoms: _499  and  _500
REMARK  209  A    between atoms: _499  and  _502
REMARK  210  A    between atoms: _502  and  _503
REMARK  211  A    between atoms: _513  and  _515
REMARK  212  A    between atoms: _515  and  _516
REMARK  213  A    between atoms: _518  and  _520
REMARK  214  A    between atoms: _520  and  _521
REMARK  215  A    between atoms: _520  and  _523
REMARK  216  A    between atoms: _523  and  _524
REMARK  217  A    between atoms: _524  and  _525
REMARK  218  A    between atoms: _525  and  _526
REMARK  219  A    between atoms: _535  and  _537
REMARK  220  A    between atoms: _537  and  _538
REMARK  221  A    between atoms: _540  and  _542
REMARK  222  A    between atoms: _542  and  _543
REMARK  223  A    between atoms: _542  and  _545
REMARK  224  A    between atoms: _547  and  _549
REMARK  225  A    between atoms: _549  and  _550
REMARK  226  A    between atoms: _553  and  _555
REMARK  227  A    between atoms: _555  and  _556
REMARK  228  A    between atoms: _555  and  _558
REMARK  229  A    between atoms: _558  and  _559
REMARK  230  A    between atoms: _562  and  _564
REMARK  231  A    between atoms: _564  and  _565
REMARK  232  A    between atoms: _564  and  _567
REMARK  233  A    between atoms: _567  and  _568
REMARK  234  A    between atoms: _568  and  _569
REMARK  235  A    between atoms: _569  and  _570
REMARK  236  A    between atoms: _570  and  _571
REMARK  237  A    between atoms: _576  and  _577
REMARK  238  A    between atoms: _582  and  _584
REMARK  239  A    between atoms: _584  and  _585
REMARK  240  A    between atoms: _587  and  _589
REMARK  241  A    between atoms: _589  and  _590
REMARK  242  A    between atoms: _589  and  _592
REMARK  243  A    between atoms: _595  and  _597
REMARK  244  A    between atoms: _597  and  _598
REMARK  245  A    between atoms: _597  and  _600
REMARK  246  A    between atoms: _600  and  _601
REMARK  247  A    between atoms: _606  and  _607
REMARK                            x       y       z     vdW  Elec       q    Type
REMARK                         _______ _______ _______ _____ _____    ______ ____
ROOT
ATOM      1  C   TYR A   1       8.220 -45.097 -30.624  0.00  0.00    +0.239 C 
ATOM      2  N   TYR A   2       8.940 -45.009 -29.528  0.00  0.00    -0.298 N 
ATOM      3  H   TYR A   2       8.963 -45.794 -28.846  0.00  0.00    +0.150 HD
ATOM      4  O   TYR A   1       8.215 -44.222 -31.447  0.00  0.00    -0.274 OA
ENDROOT
BRANCH   1   5
ATOM      5  CA  TYR A   1       7.379 -46.346 -30.833  0.00  0.00    +0.149 C 
BRANCH   5   6
ATOM      6  N   TYR A   1       7.894 -47.157 -31.928  0.00  0.00    -0.238 NA
ATOM      7  H   TYR A   1       8.590 -47.904 -31.727  0.00  0.00    +0.142 HD
ENDBRANCH   5   6
BRANCH   5   8
ATOM      8  CB  TYR A   1       7.322 -47.114 -29.543  0.00  0.00    +0.053 C 
BRANCH   8   9
ATOM      9  CG  TYR A   1       6.188 -48.080 -29.478  0.00  0.00    -0.020 A 
ATOM     10  CD2 TYR A   1       5.607 -48.400 -28.284  0.00  0.00    -0.001 A 
ATOM     11  CE2 TYR A   1       4.571 -49.292 -28.213  0.00  0.00    +0.036 A 
ATOM     12  CZ  TYR A   1       4.101 -49.876 -29.358  0.00  0.00    +0.134 A 
ATOM     13  CE1 TYR A   1       4.667 -49.566 -30.563  0.00  0.00    +0.036 A 
ATOM     14  CD1 TYR A   1       5.706 -48.674 -30.612  0.00  0.00    -0.001 A 
BRANCH  12  15
ATOM     15  OH  TYR A   1       3.068 -50.757 -29.297  0.00  0.00    -0.506 OA
ATOM     16  HH  TYR A   1       3.323 -51.523 -28.724  0.00  0.00    +0.292 HD
ENDBRANCH  12  15
ENDBRANCH   8   9
ENDBRANCH   5   8
ENDBRANCH   1   5
BRANCH   2  17
ATOM     17  CA  TYR A   2       9.700 -43.803 -29.285  0.00  0.00    +0.141 C 
BRANCH  17  18
ATOM     18  C   TYR A   2      11.201 -43.994 -29.329  0.00  0.00    +0.227 C 
ATOM     19  O   TYR A   2      11.952 -43.037 -29.301  0.00  0.00    -0.286 OA
ENDBRANCH  17  18
BRANCH  17  20
ATOM     20  CB  TYR A   2       9.245 -43.095 -27.996  0.00  0.00    +0.054 C 
BRANCH  20  21
ATOM     21  CG  TYR A   2       7.881 -42.418 -28.096  0.00  0.00    -0.020 A 
ATOM     22  CD2 TYR A   2       6.894 -42.643 -27.145  0.00  0.00    -0.001 A 
ATOM     23  CE2 TYR A   2       5.665 -42.047 -27.248  0.00  0.00    +0.036 A 
ATOM     24  CZ  TYR A   2       5.413 -41.225 -28.298  0.00  0.00    +0.134 A 
ATOM     25  CE1 TYR A   2       6.357 -40.995 -29.241  0.00  0.00    +0.036 A 
ATOM     26  CD1 TYR A   2       7.584 -41.577 -29.132  0.00  0.00    -0.001 A 
BRANCH  24  27
ATOM     27  OH  TYR A   2       4.220 -40.631 -28.411  0.00  0.00    -0.506 OA
ATOM     28  HH  TYR A   2       3.513 -41.322 -28.472  0.00  0.00    +0.292 HD
ENDBRANCH  24  27
ENDBRANCH  20  21
ENDBRANCH  17  20
ENDBRANCH   2  17
TORSDOF 10
REMARK  Name = ../refined-set-2016/4zhl/4zhl_pocket.pdb
REMARK  247 active torsions:
REMARK  status: ('A' for Active; 'I' for Inactive)
REMARK    1  A    between atoms: _1  and  _5
REMARK    2  A    between atoms: _5  and  _6
REMARK    3  A    between atoms: _5  and  _8
REMARK    4  A    between atoms: _8  and  _9
REMARK    5  A    between atoms: _12  and  _14
REMARK    6  A    between atoms: _14  and  _15
REMARK    7  A    between atoms: _14  and  _17
REMARK    8  A    between atoms: _17  and  _18
REMARK    9  A    between atoms: _21  and  _23
REMARK   10  A    between atoms: _23  and  _24
REMARK   11  A    between atoms: _23  and  _26
REMARK   12  A    between atoms: _26  and  _27
REMARK   13  A    between atoms: _30  and  _32
REMARK   14  A    between atoms: _32  and  _33
REMARK   15  A    between atoms: _32  and  _35
REMARK   16  A    between atoms: _35  and  _36
REMARK   17  A    between atoms: _36  and  _37
REMARK   18  A    between atoms: _37  and  _38
REMARK   19  A    between atoms: _47  and  _49
REMARK   20  A    between atoms: _49  and  _50
REMARK   21  A    between atoms: _49  and  _52
REMARK   22  A    between atoms: _52  and  _53
REMARK   23  A    between atoms: _56  and  _58
REMARK   24  A    between atoms: _58  and  _59
REMARK   25  A    between atoms: _58  and  _61
REMARK   26  A    between atoms: _61  and  _62
REMARK   27  A    between atoms: _67  and  _68
REMARK   28  A    between atoms: _70  and  _72
REMARK   29  A    between atoms: _72  and  _73
REMARK   30  A    between atoms: _72  and  _75
REMARK   31  A    between atoms: _78  and  _80
REMARK   32  A    between atoms: _80  and  _81
REMARK   33  A    between atoms: _80  and  _83
REMARK   34  A    between atoms: _83  and  _84
REMARK   35  A    between atoms: _84  and  _122
REMARK   36  A    between atoms: _85  and  _87
REMARK   37  A    between atoms: _87  and  _88
REMARK   38  A    between atoms: _90  and  _92
REMARK   39  A    between atoms: _92  and  _93
REMARK   40  A    between atoms: _96  and  _98
REMARK   41  A    between atoms: _98  and  _99
REMARK   42  A    between atoms: _98  and  _101
REMARK   43  A    between atoms: _101  and  _102
REMARK   44  A    between atoms: _105  and  _107
REMARK   45  A    between atoms: _107  and  _108
REMARK   46  A    between atoms: _107  and  _110
REMARK   47  A    between atoms: _110  and  _111
REMARK   48  A    between atoms: _116  and  _118
REMARK   49  A    between atoms: _118  and  _119
REMARK   50  A    between atoms: _118  and  _121
REMARK   51  A    between atoms: _121  and  _122
REMARK   52  A    between atoms: _123  and  _125
REMARK   53  A    between atoms: _125  and  _126
REMARK   54  A    between atoms: _125  and  _128
REMARK   55  A    between atoms: _128  and  _129
REMARK   56  A    between atoms: _135  and  _137
REMARK   57  A    between atoms: _137  and  _138
REMARK   58  A    between atoms: _137  and  _140
REMARK   59  A    between atoms: _140  and  _141
REMARK   60  A    between atoms: _144  and  _146
REMARK   61  A    between atoms: _146  and  _147
REMARK   62  A    between atoms: _146  and  _149
REMARK   63  A    between atoms: _149  and  _150
REMARK   64  A    between atoms: _153  and  _155
REMARK   65  A    between atoms: _155  and  _156
REMARK   66  A    between atoms: _155  and  _158
REMARK   67  A    between atoms: _158  and  _159
REMARK   68  A    between atoms: _164  and  _165
REMARK   69  A    between atoms: _167  and  _169
REMARK   70  A    between atoms: _169  and  _170
REMARK   71  A    between atoms: _169  and  _172
REMARK   72  A    between atoms: _172  and  _173
REMARK   73  A    between atoms: _178  and  _179
REMARK   74  A    between atoms: _181  and  _183
REMARK   75  A    between atoms: _183  and  _184
REMARK   76  A    between atoms: _183  and  _186
REMARK   77  A    between atoms: _186  and  _187
REMARK   78  A    between atoms: _190  and  _192
REMARK   79  A    between atoms: _192  and  _193
REMARK   80  A    between atoms: _192  and  _195
REMARK   81  A    between atoms: _195  and  _196
REMARK   82  A    between atoms: _201  and  _202
REMARK   83  A    between atoms: _204  and  _206
REMARK   84  A    between atoms: _206  and  _207
REMARK   85  A    between atoms: _206  and  _209
REMARK   86  A    between atoms: _209  and  _210
REMARK   87  A    between atoms: _212  and  _214
REMARK   88  A    between atoms: _214  and  _215
REMARK   89  A    between atoms: _218  and  _220
REMARK   90  A    between atoms: _220  and  _221
REMARK   91  A    between atoms: _220  and  _223
REMARK   92  A    between atoms: _223  and  _224
REMARK   93  A    between atoms: _227  and  _229
REMARK   94  A    between atoms: _229  and  _230
REMARK   95  A    between atoms: _229  and  _232
REMARK   96  A    between atoms: _232  and  _233
REMARK   97  A    between atoms: _236  and  _238
REMARK   98  A    between atoms: _238  and  _239
REMARK   99  A    between atoms: _238  and  _241
REMARK  100  A    between atoms: _241  and  _242
REMARK  101  A    between atoms: _245  and  _247
REMARK  102  A    between atoms: _247  and  _248
REMARK  103  A    between atoms: _251  and  _253
REMARK  104  A    between atoms: _253  and  _254
REMARK  105  A    between atoms: _253  and  _256
REMARK  106  A    between atoms: _256  and  _257
REMARK  107  A    between atoms: _262  and  _263
REMARK  108  A    between atoms: _265  and  _267
REMARK  109  A    between atoms: _267  and  _268
REMARK  110  A    between atoms: _267  and  _270
REMARK  111  A    between atoms: _270  and  _271
REMARK  112  A    between atoms: _276  and  _278
REMARK  113  A    between atoms: _278  and  _279
REMARK  114  A    between atoms: _278  and  _281
REMARK  115  A    between atoms: _281  and  _282
REMARK  116  A    between atoms: _285  and  _287
REMARK  117  A    between atoms: _287  and  _288
REMARK  118  A    between atoms: _287  and  _290
REMARK  119  A    between atoms: _290  and  _291
REMARK  120  A    between atoms: _294  and  _296
REMARK  121  A    between atoms: _296  and  _297
REMARK  122  A    between atoms: _296  and  _299
REMARK  123  A    between atoms: _299  and  _300
REMARK  124  A    between atoms: _306  and  _308
REMARK  125  A    between atoms: _308  and  _309
REMARK  126  A    between atoms: _311  and  _313
REMARK  127  A    between atoms: _313  and  _314
REMARK  128  A    between atoms: _313  and  _316
REMARK  129  A    between atoms: _316  and  _317
REMARK  130  A    between atoms: _317  and  _318
REMARK  131  A    between atoms: _318  and  _319
REMARK  132  A    between atoms: _319  and  _320
REMARK  133  A    between atoms: _324  and  _326
REMARK  134  A    between atoms: _326  and  _327
REMARK  135  A    between atoms: _326  and  _329
REMARK  136  A    between atoms: _329  and  _330
REMARK  137  A    between atoms: _332  and  _334
REMARK  138  A    between atoms: _334  and  _335
REMARK  139  A    between atoms: _334  and  _337
REMARK  140  A    between atoms: _337  and  _338
REMARK  141  A    between atoms: _343  and  _344
REMARK  142  A    between atoms: _346  and  _348
REMARK  143  A    between atoms: _348  and  _349
REMARK  144  A    between atoms: _348  and  _351
REMARK  145  A    between atoms: _354  and  _356
REMARK  146  A    between atoms: _356  and  _357
REMARK  147  A    between atoms: _356  and  _359
REMARK  148  A    between atoms: _359  and  _360
REMARK  149  A    between atoms: _365  and  _366
REMARK  150  A    between atoms: _368  and  _370
REMARK  151  A    between atoms: _370  and  _371
REMARK  152  A    between atoms: _370  and  _373
REMARK  153  A    between atoms: _373  and  _374
REMARK  154  A    between atoms: _379  and  _380
REMARK  155  A    between atoms: _382  and  _384
REMARK  156  A    between atoms: _384  and  _385
REMARK  157  A    between atoms: _384  and  _387
REMARK  158  A    between atoms: _387  and  _388
REMARK  159  A    between atoms: _388  and  _389
REMARK  160  A    between atoms: _392  and  _394
REMARK  161  A    between atoms: _394  and  _395
REMARK  162  A    between atoms: _398  and  _400
REMARK  163  A    between atoms: _400  and  _401
REMARK  164  A    between atoms: _404  and  _406
REMARK  165  A    between atoms: _406  and  _407
REMARK  166  A    between atoms: _406  and  _409
REMARK  167  A    between atoms: _409  and  _410
REMARK  168  A    between atoms: _413  and  _415
REMARK  169  A    between atoms: _415  and  _416
REMARK  170  A    between atoms: _415  and  _418
REMARK  171  A    between atoms: _418  and  _419
REMARK  172  A    between atoms: _422  and  _424
REMARK  173  A    between atoms: _424  and  _425
REMARK  174  A    between atoms: _424  and  _427
REMARK  175  A    between atoms: _427  and  _428
REMARK  176  A    between atoms: _430  and  _432
REMARK  177  A    between atoms: _432  and  _433
REMARK  178  A    between atoms: _432  and  _435
REMARK  179  A    between atoms: _435  and  _436
REMARK  180  A    between atoms: _436  and  _546
REMARK  181  A    between atoms: _437  and  _439
REMARK  182  A    between atoms: _439  and  _440
REMARK  183  A    between atoms: _439  and  _442
REMARK  184  A    between atoms: _442  and  _443
REMARK  185  A    between atoms: _443  and  _444
REMARK  186  A    between atoms: _449  and  _451
REMARK  187  A    between atoms: _451  and  _452
REMARK  188  A    between atoms: _454  and  _456
REMARK  189  A    between atoms: _456  and  _457
REMARK  190  A    between atoms: _456  and  _459
REMARK  191  A    between atoms: _459  and  _460
REMARK  192  A    between atoms: _463  and  _465
REMARK  193  A    between atoms: _465  and  _466
REMARK  194  A    between atoms: _465  and  _468
REMARK  195  A    between atoms: _468  and  _469
REMARK  196  A    between atoms: _471  and  _473
REMARK  197  A    between atoms: _473  and  _474
REMARK  198  A    between atoms: _476  and  _478
REMARK  199  A    between atoms: _478  and  _479
REMARK  200  A    between atoms: _481  and  _483
REMARK  201  A    between atoms: _483  and  _484
REMARK  202  A    between atoms: _483  and  _486
REMARK  203  A    between atoms: _489  and  _491
REMARK  204  A    between atoms: _491  and  _492
REMARK  205  A    between atoms: _491  and  _494
REMARK  206  A    between atoms: _494  and  _495
REMARK  207  A    between atoms: _497  and  _499
REMARK  208  A    between atoms: _499  and  _500
REMARK  209  A    between atoms: _499  and  _502
REMARK  210  A    between atoms: _502  and  _503
REMARK  211  A    between atoms: _513  and  _515
REMARK  212  A    between atoms: _515  and  _516
REMARK  213  A    between atoms: _518  and  _520
REMARK  214  A    between atoms: _520  and  _521
REMARK  215  A    between atoms: _520  and  _523
REMARK  216  A    between atoms: _523  and  _524
REMARK  217  A    between atoms: _524  and  _525
REMARK  218  A    between atoms: _525  and  _526
REMARK  219  A    between atoms: _535  and  _537
REMARK  220  A    between atoms: _537  and  _538
REMARK  221  A    between atoms: _540  and  _542
REMARK  222  A    between atoms: _542  and  _543
REMARK  223  A    between atoms: _542  and  _545
REMARK  224  A    between atoms: _547  and  _549
REMARK  225  A    between atoms: _549  and  _550
REMARK  226  A    between atoms: _553  and  _555
REMARK  227  A    between atoms: _555  and  _556
REMARK  228  A    between atoms: _555  and  _558
REMARK  229  A    between atoms: _558  and  _559
REMARK  230  A    between atoms: _562  and  _564
REMARK  231  A    between atoms: _564  and  _565
REMARK  232  A    between atoms: _564  and  _567
REMARK  233  A    between atoms: _567  and  _568
REMARK  234  A    between atoms: _568  and  _569
REMARK  235  A    between atoms: _569  and  _570
REMARK  236  A    between atoms: _570  and  _571
REMARK  237  A    between atoms: _576  and  _577
REMARK  238  A    between atoms: _582  and  _584
REMARK  239  A    between atoms: _584  and  _585
REMARK  240  A    between atoms: _587  and  _589
REMARK  241  A    between atoms: _589  and  _590
REMARK  242  A    between atoms: _589  and  _592
REMARK  243  A    between atoms: _595  and  _597
REMARK  244  A    between atoms: _597  and  _598
REMARK  245  A    between atoms: _597  and  _600
REMARK  246  A    between atoms: _600  and  _601
REMARK  247  A    between atoms: _606  and  _607
REMARK                            x       y       z     vdW  Elec       q    Type
REMARK                         _______ _______ _______ _____ _____    ______ ____
ROOT
ATOM      1  CA  GLU A   1      13.773 -40.968 -26.228  0.00  0.00    +0.134 C 
ENDROOT
BRANCH   1   2
ATOM      2  N   GLU A   1      14.236 -42.211 -26.836  0.00  0.00    -0.239 NA
ATOM      3  H   GLU A   1      13.735 -42.551 -27.682  0.00  0.00    +0.142 HD
ENDBRANCH   1   2
BRANCH   1   4
ATOM      4  C   GLU A   1      12.981 -41.186 -24.937  0.00  0.00    +0.224 C 
ATOM      5  O   GLU A   1      12.889 -40.274 -24.117  0.00  0.00    -0.287 OA
ENDBRANCH   1   4
BRANCH   1   6
ATOM      6  CB  GLU A   1      12.968 -40.145 -27.238  0.00  0.00    +0.037 C 
BRANCH   6   7
ATOM      7  CG  GLU A   1      12.710 -38.695 -26.833  0.00  0.00    +0.116 C 
BRANCH   7   8
ATOM      8  CD  GLU A   1      13.970 -37.914 -26.478  0.00  0.00    +0.365 C 
ATOM      9  OE2 GLU A   1      14.460 -38.039 -25.330  0.00  0.00    -0.246 OA
ATOM     10  OE1 GLU A   1      14.459 -37.163 -27.349  0.00  0.00    -0.246 OA
ENDBRANCH   7   8
ENDBRANCH   6   7
ENDBRANCH   1   6
TORSDOF 5
REMARK  Name = ../refined-set-2016/4zhl/4zhl_pocket.pdb
REMARK  247 active torsions:
REMARK  status: ('A' for Active; 'I' for Inactive)
REMARK    1  A    between atoms: _1  and  _5
REMARK    2  A    between atoms: _5  and  _6
REMARK    3  A    between atoms: _5  and  _8
REMARK    4  A    between atoms: _8  and  _9
REMARK    5  A    between atoms: _12  and  _14
REMARK    6  A    between atoms: _14  and  _15
REMARK    7  A    between atoms: _14  and  _17
REMARK    8  A    between atoms: _17  and  _18
REMARK    9  A    between atoms: _21  and  _23
REMARK   10  A    between atoms: _23  and  _24
REMARK   11  A    between atoms: _23  and  _26
REMARK   12  A    between atoms: _26  and  _27
REMARK   13  A    between atoms: _30  and  _32
REMARK   14  A    between atoms: _32  and  _33
REMARK   15  A    between atoms: _32  and  _35
REMARK   16  A    between atoms: _35  and  _36
REMARK   17  A    between atoms: _36  and  _37
REMARK   18  A    between atoms: _37  and  _38
REMARK   19  A    between atoms: _47  and  _49
REMARK   20  A    between atoms: _49  and  _50
REMARK   21  A    between atoms: _49  and  _52
REMARK   22  A    between atoms: _52  and  _53
REMARK   23  A    between atoms: _56  and  _58
REMARK   24  A    between atoms: _58  and  _59
REMARK   25  A    between atoms: _58  and  _61
REMARK   26  A    between atoms: _61  and  _62
REMARK   27  A    between atoms: _67  and  _68
REMARK   28  A    between atoms: _70  and  _72
REMARK   29  A    between atoms: _72  and  _73
REMARK   30  A    between atoms: _72  and  _75
REMARK   31  A    between atoms: _78  and  _80
REMARK   32  A    between atoms: _80  and  _81
REMARK   33  A    between atoms: _80  and  _83
REMARK   34  A    between atoms: _83  and  _84
REMARK   35  A    between atoms: _84  and  _122
REMARK   36  A    between atoms: _85  and  _87
REMARK   37  A    between atoms: _87  and  _88
REMARK   38  A    between atoms: _90  and  _92
REMARK   39  A    between atoms: _92  and  _93
REMARK   40  A    between atoms: _96  and  _98
REMARK   41  A    between atoms: _98  and  _99
REMARK   42  A    between atoms: _98  and  _101
REMARK   43  A    between atoms: _101  and  _102
REMARK   44  A    between atoms: _105  and  _107
REMARK   45  A    between atoms: _107  and  _108
REMARK   46  A    between atoms: _107  and  _110
REMARK   47  A    between atoms: _110  and  _111
REMARK   48  A    between atoms: _116  and  _118
REMARK   49  A    between atoms: _118  and  _119
REMARK   50  A    between atoms: _118  and  _121
REMARK   51  A    between atoms: _121  and  _122
REMARK   52  A    between atoms: _123  and  _125
REMARK   53  A    between atoms: _125  and  _126
REMARK   54  A    between atoms: _125  and  _128
REMARK   55  A    between atoms: _128  and  _129
REMARK   56  A    between atoms: _135  and  _137
REMARK   57  A    between atoms: _137  and  _138
REMARK   58  A    between atoms: _137  and  _140
REMARK   59  A    between atoms: _140  and  _141
REMARK   60  A    between atoms: _144  and  _146
REMARK   61  A    between atoms: _146  and  _147
REMARK   62  A    between atoms: _146  and  _149
REMARK   63  A    between atoms: _149  and  _150
REMARK   64  A    between atoms: _153  and  _155
REMARK   65  A    between atoms: _155  and  _156
REMARK   66  A    between atoms: _155  and  _158
REMARK   67  A    between atoms: _158  and  _159
REMARK   68  A    between atoms: _164  and  _165
REMARK   69  A    between atoms: _167  and  _169
REMARK   70  A    between atoms: _169  and  _170
REMARK   71  A    between atoms: _169  and  _172
REMARK   72  A    between atoms: _172  and  _173
REMARK   73  A    between atoms: _178  and  _179
REMARK   74  A    between atoms: _181  and  _183
REMARK   75  A    between atoms: _183  and  _184
REMARK   76  A    between atoms: _183  and  _186
REMARK   77  A    between atoms: _186  and  _187
REMARK   78  A    between atoms: _190  and  _192
REMARK   79  A    between atoms: _192  and  _193
REMARK   80  A    between atoms: _192  and  _195
REMARK   81  A    between atoms: _195  and  _196
REMARK   82  A    between atoms: _201  and  _202
REMARK   83  A    between atoms: _204  and  _206
REMARK   84  A    between atoms: _206  and  _207
REMARK   85  A    between atoms: _206  and  _209
REMARK   86  A    between atoms: _209  and  _210
REMARK   87  A    between atoms: _212  and  _214
REMARK   88  A    between atoms: _214  and  _215
REMARK   89  A    between atoms: _218  and  _220
REMARK   90  A    between atoms: _220  and  _221
REMARK   91  A    between atoms: _220  and  _223
REMARK   92  A    between atoms: _223  and  _224
REMARK   93  A    between atoms: _227  and  _229
REMARK   94  A    between atoms: _229  and  _230
REMARK   95  A    between atoms: _229  and  _232
REMARK   96  A    between atoms: _232  and  _233
REMARK   97  A    between atoms: _236  and  _238
REMARK   98  A    between atoms: _238  and  _239
REMARK   99  A    between atoms: _238  and  _241
REMARK  100  A    between atoms: _241  and  _242
REMARK  101  A    between atoms: _245  and  _247
REMARK  102  A    between atoms: _247  and  _248
REMARK  103  A    between atoms: _251  and  _253
REMARK  104  A    between atoms: _253  and  _254
REMARK  105  A    between atoms: _253  and  _256
REMARK  106  A    between atoms: _256  and  _257
REMARK  107  A    between atoms: _262  and  _263
REMARK  108  A    between atoms: _265  and  _267
REMARK  109  A    between atoms: _267  and  _268
REMARK  110  A    between atoms: _267  and  _270
REMARK  111  A    between atoms: _270  and  _271
REMARK  112  A    between atoms: _276  and  _278
REMARK  113  A    between atoms: _278  and  _279
REMARK  114  A    between atoms: _278  and  _281
REMARK  115  A    between atoms: _281  and  _282
REMARK  116  A    between atoms: _285  and  _287
REMARK  117  A    between atoms: _287  and  _288
REMARK  118  A    between atoms: _287  and  _290
REMARK  119  A    between atoms: _290  and  _291
REMARK  120  A    between atoms: _294  and  _296
REMARK  121  A    between atoms: _296  and  _297
REMARK  122  A    between atoms: _296  and  _299
REMARK  123  A    between atoms: _299  and  _300
REMARK  124  A    between atoms: _306  and  _308
REMARK  125  A    between atoms: _308  and  _309
REMARK  126  A    between atoms: _311  and  _313
REMARK  127  A    between atoms: _313  and  _314
REMARK  128  A    between atoms: _313  and  _316
REMARK  129  A    between atoms: _316  and  _317
REMARK  130  A    between atoms: _317  and  _318
REMARK  131  A    between atoms: _318  and  _319
REMARK  132  A    between atoms: _319  and  _320
REMARK  133  A    between atoms: _324  and  _326
REMARK  134  A    between atoms: _326  and  _327
REMARK  135  A    between atoms: _326  and  _329
REMARK  136  A    between atoms: _329  and  _330
REMARK  137  A    between atoms: _332  and  _334
REMARK  138  A    between atoms: _334  and  _335
REMARK  139  A    between atoms: _334  and  _337
REMARK  140  A    between atoms: _337  and  _338
REMARK  141  A    between atoms: _343  and  _344
REMARK  142  A    between atoms: _346  and  _348
REMARK  143  A    between atoms: _348  and  _349
REMARK  144  A    between atoms: _348  and  _351
REMARK  145  A    between atoms: _354  and  _356
REMARK  146  A    between atoms: _356  and  _357
REMARK  147  A    between atoms: _356  and  _359
REMARK  148  A    between atoms: _359  and  _360
REMARK  149  A    between atoms: _365  and  _366
REMARK  150  A    between atoms: _368  and  _370
REMARK  151  A    between atoms: _370  and  _371
REMARK  152  A    between atoms: _370  and  _373
REMARK  153  A    between atoms: _373  and  _374
REMARK  154  A    between atoms: _379  and  _380
REMARK  155  A    between atoms: _382  and  _384
REMARK  156  A    between atoms: _384  and  _385
REMARK  157  A    between atoms: _384  and  _387
REMARK  158  A    between atoms: _387  and  _388
REMARK  159  A    between atoms: _388  and  _389
REMARK  160  A    between atoms: _392  and  _394
REMARK  161  A    between atoms: _394  and  _395
REMARK  162  A    between atoms: _398  and  _400
REMARK  163  A    between atoms: _400  and  _401
REMARK  164  A    between atoms: _404  and  _406
REMARK  165  A    between atoms: _406  and  _407
REMARK  166  A    between atoms: _406  and  _409
REMARK  167  A    between atoms: _409  and  _410
REMARK  168  A    between atoms: _413  and  _415
REMARK  169  A    between atoms: _415  and  _416
REMARK  170  A    between atoms: _415  and  _418
REMARK  171  A    between atoms: _418  and  _419
REMARK  172  A    between atoms: _422  and  _424
REMARK  173  A    between atoms: _424  and  _425
REMARK  174  A    between atoms: _424  and  _427
REMARK  175  A    between atoms: _427  and  _428
REMARK  176  A    between atoms: _430  and  _432
REMARK  177  A    between atoms: _432  and  _433
REMARK  178  A    between atoms: _432  and  _435
REMARK  179  A    between atoms: _435  and  _436
REMARK  180  A    between atoms: _436  and  _546
REMARK  181  A    between atoms: _437  and  _439
REMARK  182  A    between atoms: _439  and  _440
REMARK  183  A    between atoms: _439  and  _442
REMARK  184  A    between atoms: _442  and  _443
REMARK  185  A    between atoms: _443  and  _444
REMARK  186  A    between atoms: _449  and  _451
REMARK  187  A    between atoms: _451  and  _452
REMARK  188  A    between atoms: _454  and  _456
REMARK  189  A    between atoms: _456  and  _457
REMARK  190  A    between atoms: _456  and  _459
REMARK  191  A    between atoms: _459  and  _460
REMARK  192  A    between atoms: _463  and  _465
REMARK  193  A    between atoms: _465  and  _466
REMARK  194  A    between atoms: _465  and  _468
REMARK  195  A    between atoms: _468  and  _469
REMARK  196  A    between atoms: _471  and  _473
REMARK  197  A    between atoms: _473  and  _474
REMARK  198  A    between atoms: _476  and  _478
REMARK  199  A    between atoms: _478  and  _479
REMARK  200  A    between atoms: _481  and  _483
REMARK  201  A    between atoms: _483  and  _484
REMARK  202  A    between atoms: _483  and  _486
REMARK  203  A    between atoms: _489  and  _491
REMARK  204  A    between atoms: _491  and  _492
REMARK  205  A    between atoms: _491  and  _494
REMARK  206  A    between atoms: _494  and  _495
REMARK  207  A    between atoms: _497  and  _499
REMARK  208  A    between atoms: _499  and  _500
REMARK  209  A    between atoms: _499  and  _502
REMARK  210  A    between atoms: _502  and  _503
REMARK  211  A    between atoms: _513  and  _515
REMARK  212  A    between atoms: _515  and  _516
REMARK  213  A    between atoms: _518  and  _520
REMARK  214  A    between atoms: _520  and  _521
REMARK  215  A    between atoms: _520  and  _523
REMARK  216  A    between atoms: _523  and  _524
REMARK  217  A    between atoms: _524  and  _525
REMARK  218  A    between atoms: _525  and  _526
REMARK  219  A    between atoms: _535  and  _537
REMARK  220  A    between atoms: _537  and  _538
REMARK  221  A    between atoms: _540  and  _542
REMARK  222  A    between atoms: _542  and  _543
REMARK  223  A    between atoms: _542  and  _545
REMARK  224  A    between atoms: _547  and  _549
REMARK  225  A    between atoms: _549  and  _550
REMARK  226  A    between atoms: _553  and  _555
REMARK  227  A    between atoms: _555  and  _556
REMARK  228  A    between atoms: _555  and  _558
REMARK  229  A    between atoms: _558  and  _559
REMARK  230  A    between atoms: _562  and  _564
REMARK  231  A    between atoms: _564  and  _565
REMARK  232  A    between atoms: _564  and  _567
REMARK  233  A    between atoms: _567  and  _568
REMARK  234  A    between atoms: _568  and  _569
REMARK  235  A    between atoms: _569  and  _570
REMARK  236  A    between atoms: _570  and  _571
REMARK  237  A    between atoms: _576  and  _577
REMARK  238  A    between atoms: _582  and  _584
REMARK  239  A    between atoms: _584  and  _585
REMARK  240  A    between atoms: _587  and  _589
REMARK  241  A    between atoms: _589  and  _590
REMARK  242  A    between atoms: _589  and  _592
REMARK  243  A    between atoms: _595  and  _597
REMARK  244  A    between atoms: _597  and  _598
REMARK  245  A    between atoms: _597  and  _600
REMARK  246  A    between atoms: _600  and  _601
REMARK  247  A    between atoms: _606  and  _607
REMARK                            x       y       z     vdW  Elec       q    Type
REMARK                         _______ _______ _______ _____ _____    ______ ____
ROOT
ATOM      1  C   ALA A   1      -0.122 -45.287 -22.415  0.00  0.00    +0.238 C 
ATOM      2  N   ALA A   2      -0.942 -46.210 -22.861  0.00  0.00    -0.298 N 
ATOM      3  H   ALA A   2      -1.020 -47.111 -22.347  0.00  0.00    +0.150 HD
ATOM      4  O   ALA A   1       0.034 -44.202 -22.993  0.00  0.00    -0.274 OA
ENDROOT
BRANCH   1   5
ATOM      5  CA  ALA A   1       0.698 -45.648 -21.189  0.00  0.00    +0.145 C 
ATOM      6  CB  ALA A   1       0.082 -45.080 -19.920  0.00  0.00    +0.028 C 
BRANCH   5   7
ATOM      7  N   ALA A   1       2.035 -45.106 -21.414  0.00  0.00    -0.238 NA
ATOM      8  H   ALA A   1       2.142 -44.295 -22.057  0.00  0.00    +0.142 HD
ENDBRANCH   5   7
ENDBRANCH   1   5
BRANCH   2   9
ATOM      9  CA  ALA A   2      -1.736 -46.005 -24.046  0.00  0.00    +0.137 C 
ATOM     10  CB  ALA A   2      -0.929 -46.206 -25.296  0.00  0.00    +0.030 C 
BRANCH   9  11
ATOM     11  C   ALA A   2      -2.864 -46.960 -24.041  0.00  0.00    +0.227 C 
ATOM     12  O   ALA A   2      -2.907 -47.850 -23.247  0.00  0.00    -0.286 OA
ENDBRANCH   9  11
ENDBRANCH   2   9
TORSDOF 4
REMARK  Name = ../refined-set-2016/4zhl/4zhl_pocket.pdb
REMARK  247 active torsions:
REMARK  status: ('A' for Active; 'I' for Inactive)
REMARK    1  A    between atoms: _1  and  _5
REMARK    2  A    between atoms: _5  and  _6
REMARK    3  A    between atoms: _5  and  _8
REMARK    4  A    between atoms: _8  and  _9
REMARK    5  A    between atoms: _12  and  _14
REMARK    6  A    between atoms: _14  and  _15
REMARK    7  A    between atoms: _14  and  _17
REMARK    8  A    between atoms: _17  and  _18
REMARK    9  A    between atoms: _21  and  _23
REMARK   10  A    between atoms: _23  and  _24
REMARK   11  A    between atoms: _23  and  _26
REMARK   12  A    between atoms: _26  and  _27
REMARK   13  A    between atoms: _30  and  _32
REMARK   14  A    between atoms: _32  and  _33
REMARK   15  A    between atoms: _32  and  _35
REMARK   16  A    between atoms: _35  and  _36
REMARK   17  A    between atoms: _36  and  _37
REMARK   18  A    between atoms: _37  and  _38
REMARK   19  A    between atoms: _47  and  _49
REMARK   20  A    between atoms: _49  and  _50
REMARK   21  A    between atoms: _49  and  _52
REMARK   22  A    between atoms: _52  and  _53
REMARK   23  A    between atoms: _56  and  _58
REMARK   24  A    between atoms: _58  and  _59
REMARK   25  A    between atoms: _58  and  _61
REMARK   26  A    between atoms: _61  and  _62
REMARK   27  A    between atoms: _67  and  _68
REMARK   28  A    between atoms: _70  and  _72
REMARK   29  A    between atoms: _72  and  _73
REMARK   30  A    between atoms: _72  and  _75
REMARK   31  A    between atoms: _78  and  _80
REMARK   32  A    between atoms: _80  and  _81
REMARK   33  A    between atoms: _80  and  _83
REMARK   34  A    between atoms: _83  and  _84
REMARK   35  A    between atoms: _84  and  _122
REMARK   36  A    between atoms: _85  and  _87
REMARK   37  A    between atoms: _87  and  _88
REMARK   38  A    between atoms: _90  and  _92
REMARK   39  A    between atoms: _92  and  _93
REMARK   40  A    between atoms: _96  and  _98
REMARK   41  A    between atoms: _98  and  _99
REMARK   42  A    between atoms: _98  and  _101
REMARK   43  A    between atoms: _101  and  _102
REMARK   44  A    between atoms: _105  and  _107
REMARK   45  A    between atoms: _107  and  _108
REMARK   46  A    between atoms: _107  and  _110
REMARK   47  A    between atoms: _110  and  _111
REMARK   48  A    between atoms: _116  and  _118
REMARK   49  A    between atoms: _118  and  _119
REMARK   50  A    between atoms: _118  and  _121
REMARK   51  A    between atoms: _121  and  _122
REMARK   52  A    between atoms: _123  and  _125
REMARK   53  A    between atoms: _125  and  _126
REMARK   54  A    between atoms: _125  and  _128
REMARK   55  A    between atoms: _128  and  _129
REMARK   56  A    between atoms: _135  and  _137
REMARK   57  A    between atoms: _137  and  _138
REMARK   58  A    between atoms: _137  and  _140
REMARK   59  A    between atoms: _140  and  _141
REMARK   60  A    between atoms: _144  and  _146
REMARK   61  A    between atoms: _146  and  _147
REMARK   62  A    between atoms: _146  and  _149
REMARK   63  A    between atoms: _149  and  _150
REMARK   64  A    between atoms: _153  and  _155
REMARK   65  A    between atoms: _155  and  _156
REMARK   66  A    between atoms: _155  and  _158
REMARK   67  A    between atoms: _158  and  _159
REMARK   68  A    between atoms: _164  and  _165
REMARK   69  A    between atoms: _167  and  _169
REMARK   70  A    between atoms: _169  and  _170
REMARK   71  A    between atoms: _169  and  _172
REMARK   72  A    between atoms: _172  and  _173
REMARK   73  A    between atoms: _178  and  _179
REMARK   74  A    between atoms: _181  and  _183
REMARK   75  A    between atoms: _183  and  _184
REMARK   76  A    between atoms: _183  and  _186
REMARK   77  A    between atoms: _186  and  _187
REMARK   78  A    between atoms: _190  and  _192
REMARK   79  A    between atoms: _192  and  _193
REMARK   80  A    between atoms: _192  and  _195
REMARK   81  A    between atoms: _195  and  _196
REMARK   82  A    between atoms: _201  and  _202
REMARK   83  A    between atoms: _204  and  _206
REMARK   84  A    between atoms: _206  and  _207
REMARK   85  A    between atoms: _206  and  _209
REMARK   86  A    between atoms: _209  and  _210
REMARK   87  A    between atoms: _212  and  _214
REMARK   88  A    between atoms: _214  and  _215
REMARK   89  A    between atoms: _218  and  _220
REMARK   90  A    between atoms: _220  and  _221
REMARK   91  A    between atoms: _220  and  _223
REMARK   92  A    between atoms: _223  and  _224
REMARK   93  A    between atoms: _227  and  _229
REMARK   94  A    between atoms: _229  and  _230
REMARK   95  A    between atoms: _229  and  _232
REMARK   96  A    between atoms: _232  and  _233
REMARK   97  A    between atoms: _236  and  _238
REMARK   98  A    between atoms: _238  and  _239
REMARK   99  A    between atoms: _238  and  _241
REMARK  100  A    between atoms: _241  and  _242
REMARK  101  A    between atoms: _245  and  _247
REMARK  102  A    between atoms: _247  and  _248
REMARK  103  A    between atoms: _251  and  _253
REMARK  104  A    between atoms: _253  and  _254
REMARK  105  A    between atoms: _253  and  _256
REMARK  106  A    between atoms: _256  and  _257
REMARK  107  A    between atoms: _262  and  _263
REMARK  108  A    between atoms: _265  and  _267
REMARK  109  A    between atoms: _267  and  _268
REMARK  110  A    between atoms: _267  and  _270
REMARK  111  A    between atoms: _270  and  _271
REMARK  112  A    between atoms: _276  and  _278
REMARK  113  A    between atoms: _278  and  _279
REMARK  114  A    between atoms: _278  and  _281
REMARK  115  A    between atoms: _281  and  _282
REMARK  116  A    between atoms: _285  and  _287
REMARK  117  A    between atoms: _287  and  _288
REMARK  118  A    between atoms: _287  and  _290
REMARK  119  A    between atoms: _290  and  _291
REMARK  120  A    between atoms: _294  and  _296
REMARK  121  A    between atoms: _296  and  _297
REMARK  122  A    between atoms: _296  and  _299
REMARK  123  A    between atoms: _299  and  _300
REMARK  124  A    between atoms: _306  and  _308
REMARK  125  A    between atoms: _308  and  _309
REMARK  126  A    between atoms: _311  and  _313
REMARK  127  A    between atoms: _313  and  _314
REMARK  128  A    between atoms: _313  and  _316
REMARK  129  A    between atoms: _316  and  _317
REMARK  130  A    between atoms: _317  and  _318
REMARK  131  A    between atoms: _318  and  _319
REMARK  132  A    between atoms: _319  and  _320
REMARK  133  A    between atoms: _324  and  _326
REMARK  134  A    between atoms: _326  and  _327
REMARK  135  A    between atoms: _326  and  _329
REMARK  136  A    between atoms: _329  and  _330
REMARK  137  A    between atoms: _332  and  _334
REMARK  138  A    between atoms: _334  and  _335
REMARK  139  A    between atoms: _334  and  _337
REMARK  140  A    between atoms: _337  and  _338
REMARK  141  A    between atoms: _343  and  _344
REMARK  142  A    between atoms: _346  and  _348
REMARK  143  A    between atoms: _348  and  _349
REMARK  144  A    between atoms: _348  and  _351
REMARK  145  A    between atoms: _354  and  _356
REMARK  146  A    between atoms: _356  and  _357
REMARK  147  A    between atoms: _356  and  _359
REMARK  148  A    between atoms: _359  and  _360
REMARK  149  A    between atoms: _365  and  _366
REMARK  150  A    between atoms: _368  and  _370
REMARK  151  A    between atoms: _370  and  _371
REMARK  152  A    between atoms: _370  and  _373
REMARK  153  A    between atoms: _373  and  _374
REMARK  154  A    between atoms: _379  and  _380
REMARK  155  A    between atoms: _382  and  _384
REMARK  156  A    between atoms: _384  and  _385
REMARK  157  A    between atoms: _384  and  _387
REMARK  158  A    between atoms: _387  and  _388
REMARK  159  A    between atoms: _388  and  _389
REMARK  160  A    between atoms: _392  and  _394
REMARK  161  A    between atoms: _394  and  _395
REMARK  162  A    between atoms: _398  and  _400
REMARK  163  A    between atoms: _400  and  _401
REMARK  164  A    between atoms: _404  and  _406
REMARK  165  A    between atoms: _406  and  _407
REMARK  166  A    between atoms: _406  and  _409
REMARK  167  A    between atoms: _409  and  _410
REMARK  168  A    between atoms: _413  and  _415
REMARK  169  A    between atoms: _415  and  _416
REMARK  170  A    between atoms: _415  and  _418
REMARK  171  A    between atoms: _418  and  _419
REMARK  172  A    between atoms: _422  and  _424
REMARK  173  A    between atoms: _424  and  _425
REMARK  174  A    between atoms: _424  and  _427
REMARK  175  A    between atoms: _427  and  _428
REMARK  176  A    between atoms: _430  and  _432
REMARK  177  A    between atoms: _432  and  _433
REMARK  178  A    between atoms: _432  and  _435
REMARK  179  A    between atoms: _435  and  _436
REMARK  180  A    between atoms: _436  and  _546
REMARK  181  A    between atoms: _437  and  _439
REMARK  182  A    between atoms: _439  and  _440
REMARK  183  A    between atoms: _439  and  _442
REMARK  184  A    between atoms: _442  and  _443
REMARK  185  A    between atoms: _443  and  _444
REMARK  186  A    between atoms: _449  and  _451
REMARK  187  A    between atoms: _451  and  _452
REMARK  188  A    between atoms: _454  and  _456
REMARK  189  A    between atoms: _456  and  _457
REMARK  190  A    between atoms: _456  and  _459
REMARK  191  A    between atoms: _459  and  _460
REMARK  192  A    between atoms: _463  and  _465
REMARK  193  A    between atoms: _465  and  _466
REMARK  194  A    between atoms: _465  and  _468
REMARK  195  A    between atoms: _468  and  _469
REMARK  196  A    between atoms: _471  and  _473
REMARK  197  A    between atoms: _473  and  _474
REMARK  198  A    between atoms: _476  and  _478
REMARK  199  A    between atoms: _478  and  _479
REMARK  200  A    between atoms: _481  and  _483
REMARK  201  A    between atoms: _483  and  _484
REMARK  202  A    between atoms: _483  and  _486
REMARK  203  A    between atoms: _489  and  _491
REMARK  204  A    between atoms: _491  and  _492
REMARK  205  A    between atoms: _491  and  _494
REMARK  206  A    between atoms: _494  and  _495
REMARK  207  A    between atoms: _497  and  _499
REMARK  208  A    between atoms: _499  and  _500
REMARK  209  A    between atoms: _499  and  _502
REMARK  210  A    between atoms: _502  and  _503
REMARK  211  A    between atoms: _513  and  _515
REMARK  212  A    between atoms: _515  and  _516
REMARK  213  A    between atoms: _518  and  _520
REMARK  214  A    between atoms: _520  and  _521
REMARK  215  A    between atoms: _520  and  _523
REMARK  216  A    between atoms: _523  and  _524
REMARK  217  A    between atoms: _524  and  _525
REMARK  218  A    between atoms: _525  and  _526
REMARK  219  A    between atoms: _535  and  _537
REMARK  220  A    between atoms: _537  and  _538
REMARK  221  A    between atoms: _540  and  _542
REMARK  222  A    between atoms: _542  and  _543
REMARK  223  A    between atoms: _542  and  _545
REMARK  224  A    between atoms: _547  and  _549
REMARK  225  A    between atoms: _549  and  _550
REMARK  226  A    between atoms: _553  and  _555
REMARK  227  A    between atoms: _555  and  _556
REMARK  228  A    between atoms: _555  and  _558
REMARK  229  A    between atoms: _558  and  _559
REMARK  230  A    between atoms: _562  and  _564
REMARK  231  A    between atoms: _564  and  _565
REMARK  232  A    between atoms: _564  and  _567
REMARK  233  A    between atoms: _567  and  _568
REMARK  234  A    between atoms: _568  and  _569
REMARK  235  A    between atoms: _569  and  _570
REMARK  236  A    between atoms: _570  and  _571
REMARK  237  A    between atoms: _576  and  _577
REMARK  238  A    between atoms: _582  and  _584
REMARK  239  A    between atoms: _584  and  _585
REMARK  240  A    between atoms: _587  and  _589
REMARK  241  A    between atoms: _589  and  _590
REMARK  242  A    between atoms: _589  and  _592
REMARK  243  A    between atoms: _595  and  _597
REMARK  244  A    between atoms: _597  and  _598
REMARK  245  A    between atoms: _597  and  _600
REMARK  246  A    between atoms: _600  and  _601
REMARK  247  A    between atoms: _606  and  _607
REMARK                            x       y       z     vdW  Elec       q    Type
REMARK                         _______ _______ _______ _____ _____    ______ ____
ROOT
ATOM      1  SG  CYS A   7      -3.268 -35.222 -28.499  0.00  0.00    -0.057 S 
ATOM      2  CB  CYS A   7      -3.882 -36.885 -28.811  0.00  0.00    +0.044 C 
ENDROOT
BRANCH   1   3
ATOM      3  SG  GLY A   4      -4.577 -33.967 -28.019  0.00  0.00    -0.076 S 
BRANCH   3   4
ATOM      4  CB  GLY A   4      -4.980 -34.427 -26.307  0.00  0.00    +0.098 C 
BRANCH   4   5
ATOM      5  CA  GLY A   4      -3.764 -34.571 -25.391  0.00  0.00    +0.160 C 
BRANCH   5   6
ATOM      6  C   GLY A   4      -3.278 -33.199 -24.921  0.00  0.00    +0.242 C 
ATOM      7  O   GLY A   4      -2.972 -33.006 -23.734  0.00  0.00    -0.273 OA
ATOM      8  N   ARG A   5      -3.177 -32.249 -25.850  0.00  0.00    -0.297 N 
ATOM      9  H   ARG A   5      -3.424 -32.473 -26.835  0.00  0.00    +0.150 HD
BRANCH   8  10
ATOM     10  CA  ARG A   5      -2.729 -30.904 -25.517  0.00  0.00    +0.149 C 
BRANCH  10  11
ATOM     11  C   ARG A   5      -3.666 -30.313 -24.465  0.00  0.00    +0.241 C 
ATOM     12  N   GLY A   6      -3.099 -29.750 -23.401  0.00  0.00    -0.295 N 
ATOM     13  H   GLY A   6      -2.062 -29.695 -23.347  0.00  0.00    +0.150 HD
ATOM     14  O   ARG A   5      -4.870 -30.379 -24.616  0.00  0.00    -0.273 OA
BRANCH  12  15
ATOM     15  CA  GLY A   6      -3.899 -29.209 -22.309  0.00  0.00    +0.176 C 
BRANCH  15  16
ATOM     16  C   GLY A   6      -4.193 -30.167 -21.156  0.00  0.00    +0.243 C 
ATOM     17  O   GLY A   6      -4.797 -29.765 -20.169  0.00  0.00    -0.273 OA
ATOM     18  N   CYS A   7      -3.783 -31.420 -21.262  0.00  0.00    -0.296 N 
ATOM     19  H   CYS A   7      -3.389 -31.751 -22.166  0.00  0.00    +0.150 HD
BRANCH  18  20
ATOM     20  CA  CYS A   7      -3.872 -32.359 -20.126  0.00  0.00    +0.160 C 
BRANCH  20  21
ATOM     21  C   CYS A   7      -2.562 -32.413 -19.325  0.00  0.00    +0.241 C 
ATOM     22  O   CYS A   7      -2.484 -33.082 -18.263  0.00  0.00    -0.273 OA
ATOM     23  N   ALA A   8      -1.545 -31.741 -19.878  0.00  0.00    -0.295 N 
ATOM     24  H   ALA A   8      -1.723 -31.275 -20.791  0.00  0.00    +0.150 HD
BRANCH  23  25
ATOM     25  CA  ALA A   8      -0.218 -31.608 -19.313  0.00  0.00    +0.178 C 
BRANCH  25  26
ATOM     26  C   ALA A   8      -0.248 -31.274 -17.850  0.00  0.00    +0.243 C 
ATOM     27  N   LEU A   9       0.699 -31.838 -17.099  0.00  0.00    -0.295 N 
ATOM     28  H   LEU A   9       1.435 -32.403 -17.569  0.00  0.00    +0.150 HD
ATOM     29  O   ALA A   8      -1.061 -30.464 -17.438  0.00  0.00    -0.273 OA
BRANCH  27  30
ATOM     30  CA  LEU A   9       0.749 -31.697 -15.635  0.00  0.00    +0.176 C 
BRANCH  30  31
ATOM     31  C   LEU A   9      -0.239 -32.553 -14.855  0.00  0.00    +0.243 C 
ATOM     32  O   LEU A   9      -0.094 -32.729 -13.634  0.00  0.00    -0.273 OA
ATOM     33  N   GLY A  10      -1.227 -33.116 -15.552  0.00  0.00    -0.296 N 
ATOM     34  H   GLY A  10      -1.241 -32.984 -16.583  0.00  0.00    +0.150 HD
BRANCH  33  35
ATOM     35  CA  GLY A  10      -2.287 -33.906 -14.943  0.00  0.00    +0.163 C 
BRANCH  35  36
ATOM     36  C   GLY A  10      -1.865 -35.279 -14.419  0.00  0.00    +0.229 C 
ATOM     37  O   GLY A  10      -0.766 -35.735 -14.706  0.00  0.00    -0.286 OA
ENDBRANCH  35  36
ENDBRANCH  33  35
ENDBRANCH  30  31
ENDBRANCH  27  30
ENDBRANCH  25  26
BRANCH  25  38
ATOM     38  CB  ALA A   8       0.524 -30.444 -19.988  0.00  0.00    +0.166 C 
BRANCH  38  39
ATOM     39  O   ALA A   8       1.157 -30.886 -21.155  0.00  0.00    -0.380 OA
ATOM     40  H   ALA A   8       0.479 -31.245 -21.781  0.00  0.00    +0.211 HD
ENDBRANCH  38  39
ENDBRANCH  25  38
ENDBRANCH  23  25
ENDBRANCH  20  21
BRANCH  20  41
ATOM     41  CB  CYS A   7      -4.245 -33.765 -20.623  0.00  0.00    +0.143 C 
BRANCH  41  42
ATOM     42  CG  CYS A   7      -5.683 -33.853 -21.118  0.00  0.00    +0.367 C 
ATOM     43  OD2 CYS A   7      -6.603 -33.255 -20.486  0.00  0.00    -0.246 OA
ATOM     44  OD1 CYS A   7      -5.918 -34.546 -22.139  0.00  0.00    -0.246 OA
ENDBRANCH  41  42
ENDBRANCH  20  41
ENDBRANCH  18  20
ENDBRANCH  15  16
ENDBRANCH  12  15
ENDBRANCH  10  11
BRANCH  10  45
ATOM     45  CB  ARG A   5      -2.682 -29.996 -26.756  0.00  0.00    +0.039 C 
BRANCH  45  46
ATOM     46  CG  ARG A   5      -1.965 -28.664 -26.502  0.00  0.00    +0.087 C 
BRANCH  46  47
ATOM     47  CD  ARG A   5      -1.872 -27.764 -27.732  0.00  0.00    +0.219 C 
ATOM     48  NE2 ARG A   5      -1.043 -26.739 -27.651  0.00  0.00    -0.329 N 
ATOM     49 HE21 ARG A   5      -0.483 -26.590 -26.787  0.00  0.00    +0.145 HD
ATOM     50 HE22 ARG A   5      -0.950 -26.081 -28.451  0.00  0.00    +0.145 HD
ATOM     51  OE1 ARG A   5      -2.552 -27.981 -28.726  0.00  0.00    -0.275 OA
ENDBRANCH  46  47
ENDBRANCH  45  46
ENDBRANCH  10  45
ENDBRANCH   8  10
ENDBRANCH   5   6
BRANCH   5  53
ATOM     52  C   TRP A   3      -3.850 -36.756 -24.277  0.00  0.00    +0.243 C 
ATOM     53  N   GLY A   4      -4.084 -35.442 -24.260  0.00  0.00    -0.296 N 
ATOM     54  H   GLY A   4      -4.510 -35.021 -23.410  0.00  0.00    +0.150 HD
ATOM     55  O   TRP A   3      -3.350 -37.349 -25.236  0.00  0.00    -0.273 OA
BRANCH  52  56
ATOM     56  CA  TRP A   3      -4.228 -37.544 -23.023  0.00  0.00    +0.178 C 
BRANCH  56  58
ATOM     57  C   SER A   2      -5.379 -39.453 -24.016  0.00  0.00    +0.241 C 
ATOM     58  N   TRP A   3      -4.317 -38.963 -23.391  0.00  0.00    -0.295 N 
ATOM     59  H   TRP A   3      -3.528 -39.599 -23.156  0.00  0.00    +0.150 HD
ATOM     60  O   SER A   2      -6.487 -38.892 -24.002  0.00  0.00    -0.273 OA
BRANCH  57  61
ATOM     61  CA  SER A   2      -5.155 -40.773 -24.775  0.00  0.00    +0.160 C 
BRANCH  61  63
ATOM     62  C   VAL A   1      -6.565 -42.614 -25.597  0.00  0.00    +0.241 C 
ATOM     63  N   SER A   2      -6.442 -41.367 -25.131  0.00  0.00    -0.297 N 
ATOM     64  H   SER A   2      -7.302 -40.793 -25.017  0.00  0.00    +0.150 HD
ATOM     65  O   VAL A   1      -5.628 -43.398 -25.674  0.00  0.00    -0.274 OA
BRANCH  62  66
ATOM     66  CA  VAL A   1      -7.965 -43.026 -26.077  0.00  0.00    +0.172 C 
BRANCH  66  67
ATOM     67  CB  VAL A   1      -8.870 -43.473 -24.918  0.00  0.00    +0.135 C 
ATOM     68  CG2 VAL A   1      -8.215 -44.588 -24.077  0.00  0.00    +0.034 C 
BRANCH  67  69
ATOM     69  OG1 VAL A   1      -9.215 -42.338 -24.113  0.00  0.00    -0.383 OA
ATOM     70  HG1 VAL A   1      -9.798 -42.629 -23.367  0.00  0.00    +0.210 HD
ENDBRANCH  67  69
ENDBRANCH  66  67
BRANCH  66  71
ATOM     71  N   VAL A   1      -7.916 -44.047 -27.119  0.00  0.00    -0.236 NA
ATOM     72  H   VAL A   1      -7.352 -44.908 -26.971  0.00  0.00    +0.142 HD
ENDBRANCH  66  71
ENDBRANCH  62  66
ENDBRANCH  61  63
BRANCH  61  73
ATOM     73  CB  SER A   2      -4.331 -40.516 -26.070  0.00  0.00    +0.143 C 
BRANCH  73  74
ATOM     74  CG  SER A   2      -2.809 -40.513 -25.854  0.00  0.00    +0.367 C 
ATOM     75  OD2 SER A   2      -2.322 -40.682 -24.710  0.00  0.00    -0.246 OA
ATOM     76  OD1 SER A   2      -2.071 -40.315 -26.868  0.00  0.00    -0.246 OA
ENDBRANCH  73  74
ENDBRANCH  61  73
ENDBRANCH  57  61
ENDBRANCH  56  58
BRANCH  56  77
ATOM     77  CB  TRP A   3      -3.187 -37.333 -21.926  0.00  0.00    +0.166 C 
BRANCH  77  78
ATOM     78  O   TRP A   3      -1.979 -38.034 -22.198  0.00  0.00    -0.380 OA
ATOM     79  H   TRP A   3      -2.169 -39.003 -22.263  0.00  0.00    +0.211 HD
ENDBRANCH  77  78
ENDBRANCH  56  77
ENDBRANCH  52  56
ENDBRANCH   5  53
ENDBRANCH   4   5
ENDBRANCH   3   4
ENDBRANCH   1   3
BRANCH   2  80
ATOM     80  CA  CYS A   7      -2.923 -37.905 -29.401  0.00  0.00    +0.178 C 
BRANCH  80  81
ATOM     81  C   CYS A   7      -3.684 -39.155 -29.906  0.00  0.00    +0.246 C 
ATOM     82  N   ALA A   8      -3.657 -40.246 -29.159  0.00  0.00    -0.297 N 
ATOM     83  H   ALA A   8      -3.141 -40.227 -28.256  0.00  0.00    +0.150 HD
ATOM     84  O   CYS A   7      -4.292 -39.111 -30.947  0.00  0.00    -0.273 OA
BRANCH  82  85
ATOM     85  CA  ALA A   8      -4.330 -41.476 -29.565  0.00  0.00    +0.149 C 
ATOM     86  CB  ALA A   8      -5.839 -41.299 -29.521  0.00  0.00    +0.031 C 
BRANCH  85  87
ATOM     87  C   ALA A   8      -3.866 -41.835 -30.984  0.00  0.00    +0.241 C 
ATOM     88  N   LEU A   9      -2.570 -41.765 -31.213  0.00  0.00    -0.298 N 
ATOM     89  H   LEU A   9      -1.932 -41.533 -30.425  0.00  0.00    +0.150 HD
ATOM     90  O   ALA A   8      -4.676 -42.175 -31.853  0.00  0.00    -0.273 OA
BRANCH  88  91
ATOM     91  CA  LEU A   9      -2.002 -42.001 -32.530  0.00  0.00    +0.137 C 
BRANCH  91  92
ATOM     92  C   LEU A   9      -1.284 -43.303 -32.507  0.00  0.00    +0.227 C 
ATOM     93  O   LEU A   9      -0.503 -43.550 -31.620  0.00  0.00    -0.286 OA
ENDBRANCH  91  92
BRANCH  91  94
ATOM     94  CB  LEU A   9      -1.033 -40.898 -32.866  0.00  0.00    +0.028 C 
BRANCH  94  95
ATOM     95  CG  LEU A   9      -0.116 -40.939 -34.060  0.00  0.00    +0.002 C 
ATOM     96  CD2 LEU A   9       0.716 -39.694 -34.004  0.00  0.00    +0.000 C 
ATOM     97  CD1 LEU A   9      -0.901 -40.974 -35.341  0.00  0.00    +0.000 C 
ENDBRANCH  94  95
ENDBRANCH  91  94
ENDBRANCH  88  91
ENDBRANCH  85  87
ENDBRANCH  82  85
ENDBRANCH  80  81
BRANCH  80  98
ATOM     98  N   CYS A   7      -2.170 -37.283 -30.463  0.00  0.00    -0.293 N 
ATOM     99  C   GLY A   6      -0.922 -36.891 -30.297  0.00  0.00    +0.243 C 
ATOM    100  O   GLY A   6      -0.387 -36.877 -29.226  0.00  0.00    -0.273 OA
ATOM    101  H   CYS A   7      -2.625 -37.140 -31.387  0.00  0.00    +0.150 HD
BRANCH  99 102
ATOM    102  CA  GLY A   6      -0.142 -36.526 -31.539  0.00  0.00    +0.176 C 
BRANCH 102 103
ATOM    103  N   GLY A   6       1.256 -36.499 -31.194  0.00  0.00    -0.295 N 
ATOM    104  C   ARG A   5       1.896 -37.587 -30.821  0.00  0.00    +0.241 C 
ATOM    105  O   ARG A   5       1.357 -38.661 -30.731  0.00  0.00    -0.273 OA
ATOM    106  H   GLY A   6       1.773 -35.598 -31.241  0.00  0.00    +0.150 HD
BRANCH 104 107
ATOM    107  CA  ARG A   5       3.329 -37.424 -30.431  0.00  0.00    +0.149 C 
BRANCH 107 108
ATOM    108  N   ARG A   5       3.498 -37.919 -29.077  0.00  0.00    -0.297 N 
ATOM    109  C   GLY A   4       3.290 -37.148 -28.022  0.00  0.00    +0.243 C 
ATOM    110  O   GLY A   4       2.894 -36.020 -28.108  0.00  0.00    -0.273 OA
ATOM    111  H   ARG A   5       3.791 -38.906 -28.932  0.00  0.00    +0.150 HD
BRANCH 109 112
ATOM    112  CA  GLY A   4       3.445 -37.747 -26.654  0.00  0.00    +0.176 C 
BRANCH 112 113
ATOM    113  N   GLY A   4       3.696 -36.679 -25.731  0.00  0.00    -0.295 N 
ATOM    114  C   TRP A   3       4.014 -36.859 -24.467  0.00  0.00    +0.241 C 
ATOM    115  O   TRP A   3       3.683 -37.876 -23.876  0.00  0.00    -0.273 OA
ATOM    116  H   GLY A   4       3.622 -35.703 -26.082  0.00  0.00    +0.150 HD
BRANCH 114 117
ATOM    117  CA  TRP A   3       4.537 -35.642 -23.714  0.00  0.00    +0.153 C 
BRANCH 117 118
ATOM    118  N   TRP A   3       4.497 -35.830 -22.254  0.00  0.00    -0.297 N 
ATOM    119  C   SER A   2       4.544 -34.792 -21.426  0.00  0.00    +0.243 C 
ATOM    120  O   SER A   2       4.639 -33.639 -21.827  0.00  0.00    -0.273 OA
ATOM    121  H   TRP A   3       4.431 -36.792 -21.864  0.00  0.00    +0.150 HD
BRANCH 119 122
ATOM    122  CA  SER A   2       4.489 -35.062 -19.924  0.00  0.00    +0.178 C 
BRANCH 122 123
ATOM    123  N   SER A   2       3.272 -35.745 -19.464  0.00  0.00    -0.295 N 
ATOM    124  C   VAL A   1       2.412 -35.199 -18.595  0.00  0.00    +0.238 C 
ATOM    125  O   VAL A   1       2.483 -34.032 -18.194  0.00  0.00    -0.274 OA
ATOM    126  H   SER A   2       3.069 -36.697 -19.830  0.00  0.00    +0.150 HD
BRANCH 124 127
ATOM    127  CA  VAL A   1       1.283 -36.094 -18.119  0.00  0.00    +0.145 C 
BRANCH 127 128
ATOM    128  CB  VAL A   1      -0.041 -35.511 -18.646  0.00  0.00    +0.025 C 
ATOM    129  CG2 VAL A   1      -1.226 -36.336 -18.191  0.00  0.00    +0.002 C 
ATOM    130  CG1 VAL A   1      -0.008 -35.433 -20.161  0.00  0.00    +0.002 C 
ENDBRANCH 127 128
BRANCH 127 131
ATOM    131  N   VAL A   1       1.316 -36.171 -16.671  0.00  0.00    -0.238 NA
ATOM    132  H   VAL A   1       0.505 -35.840 -16.111  0.00  0.00    +0.142 HD
ENDBRANCH 127 131
ENDBRANCH 124 127
ENDBRANCH 122 123
BRANCH 122 133
ATOM    133  CB  SER A   2       5.740 -35.823 -19.496  0.00  0.00    +0.166 C 
BRANCH 133 134
ATOM    134  OG  SER A   2       6.889 -35.004 -19.589  0.00  0.00    -0.380 OA
ATOM    135  H   SER A   2       7.685 -35.521 -19.306  0.00  0.00    +0.211 HD
ENDBRANCH 133 134
ENDBRANCH 122 133
ENDBRANCH 119 122
ENDBRANCH 117 118
BRANCH 117 136
ATOM    136  CB  TRP A   3       5.967 -35.280 -24.190  0.00  0.00    +0.057 C 
BRANCH 136 137
ATOM    137  CG  TRP A   3       7.010 -36.276 -23.766  0.00  0.00    -0.002 A 
ATOM    138  CD1 TRP A   3       7.639 -36.322 -22.568  0.00  0.00    +0.068 A 
ATOM    139  NE1 TRP A   3       8.516 -37.379 -22.527  0.00  0.00    -0.352 N 
ATOM    140  HE1 TRP A   3       9.128 -37.628 -21.724  0.00  0.00    +0.166 HD
ATOM    141  CE2 TRP A   3       8.451 -38.049 -23.715  0.00  0.00    +0.056 A 
ATOM    142  CZ2 TRP A   3       9.150 -39.184 -24.153  0.00  0.00    +0.017 A 
ATOM    143  CH2 TRP A   3       8.885 -39.634 -25.420  0.00  0.00    +0.001 A 
ATOM    144  CZ3 TRP A   3       7.949 -38.989 -26.244  0.00  0.00    +0.000 A 
ATOM    145  CE3 TRP A   3       7.262 -37.864 -25.810  0.00  0.00    +0.001 A 
ATOM    146  CD2 TRP A   3       7.515 -37.376 -24.526  0.00  0.00    +0.013 A 
ENDBRANCH 136 137
ENDBRANCH 117 136
ENDBRANCH 114 117
ENDBRANCH 112 113
ENDBRANCH 109 112
ENDBRANCH 107 108
BRANCH 107 147
ATOM    147  CB  ARG A   5       4.238 -38.193 -31.391  0.00  0.00    +0.033 C 
BRANCH 147 148
ATOM    148  CG  ARG A   5       4.113 -37.823 -32.849  0.00  0.00    +0.045 C 
BRANCH 148 149
ATOM    149  CD  ARG A   5       4.793 -38.829 -33.763  0.00  0.00    +0.174 C 
BRANCH 149 150
ATOM    150  NE  ARG A   5       5.322 -38.196 -34.958  0.00  0.00    -0.265 N 
ATOM    151  HE  ARG A   5       4.956 -37.253 -35.199  0.00  0.00    +0.259 HD
ATOM    152  CZ  ARG A   5       6.238 -38.722 -35.773  0.00  0.00    +0.342 C 
ATOM    153  NH2 ARG A   5       6.749 -39.913 -35.526  0.00  0.00    -0.292 N 
ATOM    154 HH21 ARG A   5       6.438 -40.449 -34.691  0.00  0.00    +0.255 HD
ATOM    155 HH22 ARG A   5       7.463 -40.316 -36.166  0.00  0.00    +0.255 HD
ATOM    156  NH1 ARG A   5       6.649 -38.039 -36.837  0.00  0.00    -0.292 N 
ATOM    157 HH11 ARG A   5       6.257 -37.096 -37.033  0.00  0.00    +0.255 HD
ATOM    158 HH12 ARG A   5       7.363 -38.448 -37.473  0.00  0.00    +0.255 HD
ENDBRANCH 149 150
ENDBRANCH 148 149
ENDBRANCH 147 148
ENDBRANCH 107 147
ENDBRANCH 104 107
ENDBRANCH 102 103
ENDBRANCH  99 102
ENDBRANCH  80  98
ENDBRANCH   2  80
TORSDOF 66
REMARK  Name = ../refined-set-2016/4zhl/4zhl_pocket.pdb
REMARK  247 active torsions:
REMARK  status: ('A' for Active; 'I' for Inactive)
REMARK    1  A    between atoms: _1  and  _5
REMARK    2  A    between atoms: _5  and  _6
REMARK    3  A    between atoms: _5  and  _8
REMARK    4  A    between atoms: _8  and  _9
REMARK    5  A    between atoms: _12  and  _14
REMARK    6  A    between atoms: _14  and  _15
REMARK    7  A    between atoms: _14  and  _17
REMARK    8  A    between atoms: _17  and  _18
REMARK    9  A    between atoms: _21  and  _23
REMARK   10  A    between atoms: _23  and  _24
REMARK   11  A    between atoms: _23  and  _26
REMARK   12  A    between atoms: _26  and  _27
REMARK   13  A    between atoms: _30  and  _32
REMARK   14  A    between atoms: _32  and  _33
REMARK   15  A    between atoms: _32  and  _35
REMARK   16  A    between atoms: _35  and  _36
REMARK   17  A    between atoms: _36  and  _37
REMARK   18  A    between atoms: _37  and  _38
REMARK   19  A    between atoms: _47  and  _49
REMARK   20  A    between atoms: _49  and  _50
REMARK   21  A    between atoms: _49  and  _52
REMARK   22  A    between atoms: _52  and  _53
REMARK   23  A    between atoms: _56  and  _58
REMARK   24  A    between atoms: _58  and  _59
REMARK   25  A    between atoms: _58  and  _61
REMARK   26  A    between atoms: _61  and  _62
REMARK   27  A    between atoms: _67  and  _68
REMARK   28  A    between atoms: _70  and  _72
REMARK   29  A    between atoms: _72  and  _73
REMARK   30  A    between atoms: _72  and  _75
REMARK   31  A    between atoms: _78  and  _80
REMARK   32  A    between atoms: _80  and  _81
REMARK   33  A    between atoms: _80  and  _83
REMARK   34  A    between atoms: _83  and  _84
REMARK   35  A    between atoms: _84  and  _122
REMARK   36  A    between atoms: _85  and  _87
REMARK   37  A    between atoms: _87  and  _88
REMARK   38  A    between atoms: _90  and  _92
REMARK   39  A    between atoms: _92  and  _93
REMARK   40  A    between atoms: _96  and  _98
REMARK   41  A    between atoms: _98  and  _99
REMARK   42  A    between atoms: _98  and  _101
REMARK   43  A    between atoms: _101  and  _102
REMARK   44  A    between atoms: _105  and  _107
REMARK   45  A    between atoms: _107  and  _108
REMARK   46  A    between atoms: _107  and  _110
REMARK   47  A    between atoms: _110  and  _111
REMARK   48  A    between atoms: _116  and  _118
REMARK   49  A    between atoms: _118  and  _119
REMARK   50  A    between atoms: _118  and  _121
REMARK   51  A    between atoms: _121  and  _122
REMARK   52  A    between atoms: _123  and  _125
REMARK   53  A    between atoms: _125  and  _126
REMARK   54  A    between atoms: _125  and  _128
REMARK   55  A    between atoms: _128  and  _129
REMARK   56  A    between atoms: _135  and  _137
REMARK   57  A    between atoms: _137  and  _138
REMARK   58  A    between atoms: _137  and  _140
REMARK   59  A    between atoms: _140  and  _141
REMARK   60  A    between atoms: _144  and  _146
REMARK   61  A    between atoms: _146  and  _147
REMARK   62  A    between atoms: _146  and  _149
REMARK   63  A    between atoms: _149  and  _150
REMARK   64  A    between atoms: _153  and  _155
REMARK   65  A    between atoms: _155  and  _156
REMARK   66  A    between atoms: _155  and  _158
REMARK   67  A    between atoms: _158  and  _159
REMARK   68  A    between atoms: _164  and  _165
REMARK   69  A    between atoms: _167  and  _169
REMARK   70  A    between atoms: _169  and  _170
REMARK   71  A    between atoms: _169  and  _172
REMARK   72  A    between atoms: _172  and  _173
REMARK   73  A    between atoms: _178  and  _179
REMARK   74  A    between atoms: _181  and  _183
REMARK   75  A    between atoms: _183  and  _184
REMARK   76  A    between atoms: _183  and  _186
REMARK   77  A    between atoms: _186  and  _187
REMARK   78  A    between atoms: _190  and  _192
REMARK   79  A    between atoms: _192  and  _193
REMARK   80  A    between atoms: _192  and  _195
REMARK   81  A    between atoms: _195  and  _196
REMARK   82  A    between atoms: _201  and  _202
REMARK   83  A    between atoms: _204  and  _206
REMARK   84  A    between atoms: _206  and  _207
REMARK   85  A    between atoms: _206  and  _209
REMARK   86  A    between atoms: _209  and  _210
REMARK   87  A    between atoms: _212  and  _214
REMARK   88  A    between atoms: _214  and  _215
REMARK   89  A    between atoms: _218  and  _220
REMARK   90  A    between atoms: _220  and  _221
REMARK   91  A    between atoms: _220  and  _223
REMARK   92  A    between atoms: _223  and  _224
REMARK   93  A    between atoms: _227  and  _229
REMARK   94  A    between atoms: _229  and  _230
REMARK   95  A    between atoms: _229  and  _232
REMARK   96  A    between atoms: _232  and  _233
REMARK   97  A    between atoms: _236  and  _238
REMARK   98  A    between atoms: _238  and  _239
REMARK   99  A    between atoms: _238  and  _241
REMARK  100  A    between atoms: _241  and  _242
REMARK  101  A    between atoms: _245  and  _247
REMARK  102  A    between atoms: _247  and  _248
REMARK  103  A    between atoms: _251  and  _253
REMARK  104  A    between atoms: _253  and  _254
REMARK  105  A    between atoms: _253  and  _256
REMARK  106  A    between atoms: _256  and  _257
REMARK  107  A    between atoms: _262  and  _263
REMARK  108  A    between atoms: _265  and  _267
REMARK  109  A    between atoms: _267  and  _268
REMARK  110  A    between atoms: _267  and  _270
REMARK  111  A    between atoms: _270  and  _271
REMARK  112  A    between atoms: _276  and  _278
REMARK  113  A    between atoms: _278  and  _279
REMARK  114  A    between atoms: _278  and  _281
REMARK  115  A    between atoms: _281  and  _282
REMARK  116  A    between atoms: _285  and  _287
REMARK  117  A    between atoms: _287  and  _288
REMARK  118  A    between atoms: _287  and  _290
REMARK  119  A    between atoms: _290  and  _291
REMARK  120  A    between atoms: _294  and  _296
REMARK  121  A    between atoms: _296  and  _297
REMARK  122  A    between atoms: _296  and  _299
REMARK  123  A    between atoms: _299  and  _300
REMARK  124  A    between atoms: _306  and  _308
REMARK  125  A    between atoms: _308  and  _309
REMARK  126  A    between atoms: _311  and  _313
REMARK  127  A    between atoms: _313  and  _314
REMARK  128  A    between atoms: _313  and  _316
REMARK  129  A    between atoms: _316  and  _317
REMARK  130  A    between atoms: _317  and  _318
REMARK  131  A    between atoms: _318  and  _319
REMARK  132  A    between atoms: _319  and  _320
REMARK  133  A    between atoms: _324  and  _326
REMARK  134  A    between atoms: _326  and  _327
REMARK  135  A    between atoms: _326  and  _329
REMARK  136  A    between atoms: _329  and  _330
REMARK  137  A    between atoms: _332  and  _334
REMARK  138  A    between atoms: _334  and  _335
REMARK  139  A    between atoms: _334  and  _337
REMARK  140  A    between atoms: _337  and  _338
REMARK  141  A    between atoms: _343  and  _344
REMARK  142  A    between atoms: _346  and  _348
REMARK  143  A    between atoms: _348  and  _349
REMARK  144  A    between atoms: _348  and  _351
REMARK  145  A    between atoms: _354  and  _356
REMARK  146  A    between atoms: _356  and  _357
REMARK  147  A    between atoms: _356  and  _359
REMARK  148  A    between atoms: _359  and  _360
REMARK  149  A    between atoms: _365  and  _366
REMARK  150  A    between atoms: _368  and  _370
REMARK  151  A    between atoms: _370  and  _371
REMARK  152  A    between atoms: _370  and  _373
REMARK  153  A    between atoms: _373  and  _374
REMARK  154  A    between atoms: _379  and  _380
REMARK  155  A    between atoms: _382  and  _384
REMARK  156  A    between atoms: _384  and  _385
REMARK  157  A    between atoms: _384  and  _387
REMARK  158  A    between atoms: _387  and  _388
REMARK  159  A    between atoms: _388  and  _389
REMARK  160  A    between atoms: _392  and  _394
REMARK  161  A    between atoms: _394  and  _395
REMARK  162  A    between atoms: _398  and  _400
REMARK  163  A    between atoms: _400  and  _401
REMARK  164  A    between atoms: _404  and  _406
REMARK  165  A    between atoms: _406  and  _407
REMARK  166  A    between atoms: _406  and  _409
REMARK  167  A    between atoms: _409  and  _410
REMARK  168  A    between atoms: _413  and  _415
REMARK  169  A    between atoms: _415  and  _416
REMARK  170  A    between atoms: _415  and  _418
REMARK  171  A    between atoms: _418  and  _419
REMARK  172  A    between atoms: _422  and  _424
REMARK  173  A    between atoms: _424  and  _425
REMARK  174  A    between atoms: _424  and  _427
REMARK  175  A    between atoms: _427  and  _428
REMARK  176  A    between atoms: _430  and  _432
REMARK  177  A    between atoms: _432  and  _433
REMARK  178  A    between atoms: _432  and  _435
REMARK  179  A    between atoms: _435  and  _436
REMARK  180  A    between atoms: _436  and  _546
REMARK  181  A    between atoms: _437  and  _439
REMARK  182  A    between atoms: _439  and  _440
REMARK  183  A    between atoms: _439  and  _442
REMARK  184  A    between atoms: _442  and  _443
REMARK  185  A    between atoms: _443  and  _444
REMARK  186  A    between atoms: _449  and  _451
REMARK  187  A    between atoms: _451  and  _452
REMARK  188  A    between atoms: _454  and  _456
REMARK  189  A    between atoms: _456  and  _457
REMARK  190  A    between atoms: _456  and  _459
REMARK  191  A    between atoms: _459  and  _460
REMARK  192  A    between atoms: _463  and  _465
REMARK  193  A    between atoms: _465  and  _466
REMARK  194  A    between atoms: _465  and  _468
REMARK  195  A    between atoms: _468  and  _469
REMARK  196  A    between atoms: _471  and  _473
REMARK  197  A    between atoms: _473  and  _474
REMARK  198  A    between atoms: _476  and  _478
REMARK  199  A    between atoms: _478  and  _479
REMARK  200  A    between atoms: _481  and  _483
REMARK  201  A    between atoms: _483  and  _484
REMARK  202  A    between atoms: _483  and  _486
REMARK  203  A    between atoms: _489  and  _491
REMARK  204  A    between atoms: _491  and  _492
REMARK  205  A    between atoms: _491  and  _494
REMARK  206  A    between atoms: _494  and  _495
REMARK  207  A    between atoms: _497  and  _499
REMARK  208  A    between atoms: _499  and  _500
REMARK  209  A    between atoms: _499  and  _502
REMARK  210  A    between atoms: _502  and  _503
REMARK  211  A    between atoms: _513  and  _515
REMARK  212  A    between atoms: _515  and  _516
REMARK  213  A    between atoms: _518  and  _520
REMARK  214  A    between atoms: _520  and  _521
REMARK  215  A    between atoms: _520  and  _523
REMARK  216  A    between atoms: _523  and  _524
REMARK  217  A    between atoms: _524  and  _525
REMARK  218  A    between atoms: _525  and  _526
REMARK  219  A    between atoms: _535  and  _537
REMARK  220  A    between atoms: _537  and  _538
REMARK  221  A    between atoms: _540  and  _542
REMARK  222  A    between atoms: _542  and  _543
REMARK  223  A    between atoms: _542  and  _545
REMARK  224  A    between atoms: _547  and  _549
REMARK  225  A    between atoms: _549  and  _550
REMARK  226  A    between atoms: _553  and  _555
REMARK  227  A    between atoms: _555  and  _556
REMARK  228  A    between atoms: _555  and  _558
REMARK  229  A    between atoms: _558  and  _559
REMARK  230  A    between atoms: _562  and  _564
REMARK  231  A    between atoms: _564  and  _565
REMARK  232  A    between atoms: _564  and  _567
REMARK  233  A    between atoms: _567  and  _568
REMARK  234  A    between atoms: _568  and  _569
REMARK  235  A    between atoms: _569  and  _570
REMARK  236  A    between atoms: _570  and  _571
REMARK  237  A    between atoms: _576  and  _577
REMARK  238  A    between atoms: _582  and  _584
REMARK  239  A    between atoms: _584  and  _585
REMARK  240  A    between atoms: _587  and  _589
REMARK  241  A    between atoms: _589  and  _590
REMARK  242  A    between atoms: _589  and  _592
REMARK  243  A    between atoms: _595  and  _597
REMARK  244  A    between atoms: _597  and  _598
REMARK  245  A    between atoms: _597  and  _600
REMARK  246  A    between atoms: _600  and  _601
REMARK  247  A    between atoms: _606  and  _607
REMARK                            x       y       z     vdW  Elec       q    Type
REMARK                         _______ _______ _______ _____ _____    ______ ____
ROOT
ATOM      1  C   GLY A   3       2.515 -41.255 -23.020  0.00  0.00    +0.243 C 
ATOM      2  O   GLY A   3       2.734 -42.411 -22.636  0.00  0.00    -0.273 OA
ATOM      3  N   VAL A   4       3.292 -40.231 -22.690  0.00  0.00    -0.297 N 
ATOM      4  H   VAL A   4       3.050 -39.278 -23.029  0.00  0.00    +0.150 HD
ENDROOT
BRANCH   3   5
ATOM      5  CA  VAL A   4       4.478 -40.416 -21.862  0.00  0.00    +0.149 C 
BRANCH   5   6
ATOM      6  C   VAL A   4       4.338 -39.581 -20.617  0.00  0.00    +0.241 C 
ATOM      7  N   TYR A   5       4.755 -40.158 -19.497  0.00  0.00    -0.298 N 
ATOM      8  H   TYR A   5       5.287 -41.050 -19.556  0.00  0.00    +0.150 HD
ATOM      9  O   VAL A   4       3.863 -38.432 -20.665  0.00  0.00    -0.273 OA
BRANCH   7  10
ATOM     10  CA  TYR A   5       4.490 -39.580 -18.194  0.00  0.00    +0.141 C 
BRANCH  10  11
ATOM     11  C   TYR A   5       5.725 -39.596 -17.337  0.00  0.00    +0.227 C 
ATOM     12  O   TYR A   5       6.563 -40.485 -17.457  0.00  0.00    -0.286 OA
ENDBRANCH  10  11
BRANCH  10  13
ATOM     13  CB  TYR A   5       3.393 -40.374 -17.490  0.00  0.00    +0.054 C 
BRANCH  13  14
ATOM     14  CG  TYR A   5       2.079 -40.394 -18.235  0.00  0.00    -0.020 A 
ATOM     15  CD2 TYR A   5       0.987 -39.682 -17.760  0.00  0.00    -0.001 A 
ATOM     16  CE2 TYR A   5      -0.214 -39.697 -18.421  0.00  0.00    +0.036 A 
ATOM     17  CZ  TYR A   5      -0.353 -40.418 -19.586  0.00  0.00    +0.134 A 
ATOM     18  CE1 TYR A   5       0.711 -41.156 -20.093  0.00  0.00    +0.036 A 
ATOM     19  CD1 TYR A   5       1.918 -41.145 -19.414  0.00  0.00    -0.001 A 
BRANCH  17  20
ATOM     20  OH  TYR A   5      -1.564 -40.394 -20.221  0.00  0.00    -0.506 OA
ATOM     21  HH  TYR A   5      -1.518 -40.952 -21.038  0.00  0.00    +0.292 HD
ENDBRANCH  17  20
ENDBRANCH  13  14
ENDBRANCH  10  13
ENDBRANCH   7  10
ENDBRANCH   5   6
BRANCH   5  22
ATOM     22  CB  VAL A   4       5.754 -40.005 -22.629  0.00  0.00    +0.027 C 
ATOM     23  CG2 VAL A   4       6.998 -40.399 -21.849  0.00  0.00    +0.002 C 
ATOM     24  CG1 VAL A   4       5.726 -40.612 -24.029  0.00  0.00    +0.002 C 
ENDBRANCH   5  22
ENDBRANCH   3   5
BRANCH   1  25
ATOM     25  CA  GLY A   3       1.327 -40.940 -23.911  0.00  0.00    +0.176 C 
BRANCH  25  27
ATOM     26  C   PRO A   2       2.020 -42.358 -25.721  0.00  0.00    +0.241 C 
ATOM     27  N   GLY A   3       1.108 -42.054 -24.806  0.00  0.00    -0.295 N 
ATOM     28  H   GLY A   3       0.236 -42.617 -24.733  0.00  0.00    +0.150 HD
ATOM     29  O   PRO A   2       2.935 -41.589 -26.022  0.00  0.00    -0.273 OA
BRANCH  26  32
ATOM     30  C   LYS A   1       2.133 -43.180 -28.728  0.00  0.00    +0.241 C 
ATOM     31  N   PRO A   2       2.540 -43.875 -27.685  0.00  0.00    -0.272 N 
ATOM     32  CA  PRO A   2       1.904 -43.742 -26.365  0.00  0.00    +0.152 C 
ATOM     33  CB  PRO A   2       2.679 -44.738 -25.489  0.00  0.00    +0.031 C 
ATOM     34  CG  PRO A   2       3.371 -45.656 -26.429  0.00  0.00    +0.024 C 
ATOM     35  CD  PRO A   2       3.621 -44.877 -27.677  0.00  0.00    +0.094 C 
ATOM     36  O   LYS A   1       1.234 -42.392 -28.659  0.00  0.00    -0.273 OA
BRANCH  30  37
ATOM     37  CA  LYS A   1       2.873 -43.401 -30.059  0.00  0.00    +0.145 C 
BRANCH  37  38
ATOM     38  N   LYS A   1       2.336 -44.510 -30.805  0.00  0.00    -0.238 NA
ATOM     39  H   LYS A   1       1.329 -44.488 -31.063  0.00  0.00    +0.142 HD
ENDBRANCH  37  38
BRANCH  37  40
ATOM     40  CB  LYS A   1       2.772 -42.161 -30.920  0.00  0.00    +0.026 C 
BRANCH  40  41
ATOM     41  CG  LYS A   1       3.322 -42.339 -32.319  0.00  0.00    -0.000 C 
BRANCH  41  42
ATOM     42  CD  LYS A   1       4.827 -42.407 -32.260  0.00  0.00    -0.024 C 
BRANCH  42  43
ATOM     43  CE  LYS A   1       5.471 -42.839 -33.569  0.00  0.00    -0.086 C 
BRANCH  43  44
ATOM     44  NZ  LYS A   1       6.875 -43.215 -33.286  0.00  0.00    +0.380 N 
ATOM     45  HZ1 LYS A   1       6.892 -43.998 -32.601  0.00  0.00    -0.089 HD
ATOM     46  HZ2 LYS A   1       7.379 -42.396 -32.890  0.00  0.00    -0.089 HD
ATOM     47  HZ3 LYS A   1       7.337 -43.515 -34.168  0.00  0.00    -0.089 HD
ENDBRANCH  43  44
ENDBRANCH  42  43
ENDBRANCH  41  42
ENDBRANCH  40  41
ENDBRANCH  37  40
ENDBRANCH  30  37
ENDBRANCH  26  32
ENDBRANCH  25  27
ENDBRANCH   1  25
TORSDOF 18
REMARK  Name = ../refined-set-2016/4zhl/4zhl_pocket.pdb
REMARK  247 active torsions:
REMARK  status: ('A' for Active; 'I' for Inactive)
REMARK    1  A    between atoms: _1  and  _5
REMARK    2  A    between atoms: _5  and  _6
REMARK    3  A    between atoms: _5  and  _8
REMARK    4  A    between atoms: _8  and  _9
REMARK    5  A    between atoms: _12  and  _14
REMARK    6  A    between atoms: _14  and  _15
REMARK    7  A    between atoms: _14  and  _17
REMARK    8  A    between atoms: _17  and  _18
REMARK    9  A    between atoms: _21  and  _23
REMARK   10  A    between atoms: _23  and  _24
REMARK   11  A    between atoms: _23  and  _26
REMARK   12  A    between atoms: _26  and  _27
REMARK   13  A    between atoms: _30  and  _32
REMARK   14  A    between atoms: _32  and  _33
REMARK   15  A    between atoms: _32  and  _35
REMARK   16  A    between atoms: _35  and  _36
REMARK   17  A    between atoms: _36  and  _37
REMARK   18  A    between atoms: _37  and  _38
REMARK   19  A    between atoms: _47  and  _49
REMARK   20  A    between atoms: _49  and  _50
REMARK   21  A    between atoms: _49  and  _52
REMARK   22  A    between atoms: _52  and  _53
REMARK   23  A    between atoms: _56  and  _58
REMARK   24  A    between atoms: _58  and  _59
REMARK   25  A    between atoms: _58  and  _61
REMARK   26  A    between atoms: _61  and  _62
REMARK   27  A    between atoms: _67  and  _68
REMARK   28  A    between atoms: _70  and  _72
REMARK   29  A    between atoms: _72  and  _73
REMARK   30  A    between atoms: _72  and  _75
REMARK   31  A    between atoms: _78  and  _80
REMARK   32  A    between atoms: _80  and  _81
REMARK   33  A    between atoms: _80  and  _83
REMARK   34  A    between atoms: _83  and  _84
REMARK   35  A    between atoms: _84  and  _122
REMARK   36  A    between atoms: _85  and  _87
REMARK   37  A    between atoms: _87  and  _88
REMARK   38  A    between atoms: _90  and  _92
REMARK   39  A    between atoms: _92  and  _93
REMARK   40  A    between atoms: _96  and  _98
REMARK   41  A    between atoms: _98  and  _99
REMARK   42  A    between atoms: _98  and  _101
REMARK   43  A    between atoms: _101  and  _102
REMARK   44  A    between atoms: _105  and  _107
REMARK   45  A    between atoms: _107  and  _108
REMARK   46  A    between atoms: _107  and  _110
REMARK   47  A    between atoms: _110  and  _111
REMARK   48  A    between atoms: _116  and  _118
REMARK   49  A    between atoms: _118  and  _119
REMARK   50  A    between atoms: _118  and  _121
REMARK   51  A    between atoms: _121  and  _122
REMARK   52  A    between atoms: _123  and  _125
REMARK   53  A    between atoms: _125  and  _126
REMARK   54  A    between atoms: _125  and  _128
REMARK   55  A    between atoms: _128  and  _129
REMARK   56  A    between atoms: _135  and  _137
REMARK   57  A    between atoms: _137  and  _138
REMARK   58  A    between atoms: _137  and  _140
REMARK   59  A    between atoms: _140  and  _141
REMARK   60  A    between atoms: _144  and  _146
REMARK   61  A    between atoms: _146  and  _147
REMARK   62  A    between atoms: _146  and  _149
REMARK   63  A    between atoms: _149  and  _150
REMARK   64  A    between atoms: _153  and  _155
REMARK   65  A    between atoms: _155  and  _156
REMARK   66  A    between atoms: _155  and  _158
REMARK   67  A    between atoms: _158  and  _159
REMARK   68  A    between atoms: _164  and  _165
REMARK   69  A    between atoms: _167  and  _169
REMARK   70  A    between atoms: _169  and  _170
REMARK   71  A    between atoms: _169  and  _172
REMARK   72  A    between atoms: _172  and  _173
REMARK   73  A    between atoms: _178  and  _179
REMARK   74  A    between atoms: _181  and  _183
REMARK   75  A    between atoms: _183  and  _184
REMARK   76  A    between atoms: _183  and  _186
REMARK   77  A    between atoms: _186  and  _187
REMARK   78  A    between atoms: _190  and  _192
REMARK   79  A    between atoms: _192  and  _193
REMARK   80  A    between atoms: _192  and  _195
REMARK   81  A    between atoms: _195  and  _196
REMARK   82  A    between atoms: _201  and  _202
REMARK   83  A    between atoms: _204  and  _206
REMARK   84  A    between atoms: _206  and  _207
REMARK   85  A    between atoms: _206  and  _209
REMARK   86  A    between atoms: _209  and  _210
REMARK   87  A    between atoms: _212  and  _214
REMARK   88  A    between atoms: _214  and  _215
REMARK   89  A    between atoms: _218  and  _220
REMARK   90  A    between atoms: _220  and  _221
REMARK   91  A    between atoms: _220  and  _223
REMARK   92  A    between atoms: _223  and  _224
REMARK   93  A    between atoms: _227  and  _229
REMARK   94  A    between atoms: _229  and  _230
REMARK   95  A    between atoms: _229  and  _232
REMARK   96  A    between atoms: _232  and  _233
REMARK   97  A    between atoms: _236  and  _238
REMARK   98  A    between atoms: _238  and  _239
REMARK   99  A    between atoms: _238  and  _241
REMARK  100  A    between atoms: _241  and  _242
REMARK  101  A    between atoms: _245  and  _247
REMARK  102  A    between atoms: _247  and  _248
REMARK  103  A    between atoms: _251  and  _253
REMARK  104  A    between atoms: _253  and  _254
REMARK  105  A    between atoms: _253  and  _256
REMARK  106  A    between atoms: _256  and  _257
REMARK  107  A    between atoms: _262  and  _263
REMARK  108  A    between atoms: _265  and  _267
REMARK  109  A    between atoms: _267  and  _268
REMARK  110  A    between atoms: _267  and  _270
REMARK  111  A    between atoms: _270  and  _271
REMARK  112  A    between atoms: _276  and  _278
REMARK  113  A    between atoms: _278  and  _279
REMARK  114  A    between atoms: _278  and  _281
REMARK  115  A    between atoms: _281  and  _282
REMARK  116  A    between atoms: _285  and  _287
REMARK  117  A    between atoms: _287  and  _288
REMARK  118  A    between atoms: _287  and  _290
REMARK  119  A    between atoms: _290  and  _291
REMARK  120  A    between atoms: _294  and  _296
REMARK  121  A    between atoms: _296  and  _297
REMARK  122  A    between atoms: _296  and  _299
REMARK  123  A    between atoms: _299  and  _300
REMARK  124  A    between atoms: _306  and  _308
REMARK  125  A    between atoms: _308  and  _309
REMARK  126  A    between atoms: _311  and  _313
REMARK  127  A    between atoms: _313  and  _314
REMARK  128  A    between atoms: _313  and  _316
REMARK  129  A    between atoms: _316  and  _317
REMARK  130  A    between atoms: _317  and  _318
REMARK  131  A    between atoms: _318  and  _319
REMARK  132  A    between atoms: _319  and  _320
REMARK  133  A    between atoms: _324  and  _326
REMARK  134  A    between atoms: _326  and  _327
REMARK  135  A    between atoms: _326  and  _329
REMARK  136  A    between atoms: _329  and  _330
REMARK  137  A    between atoms: _332  and  _334
REMARK  138  A    between atoms: _334  and  _335
REMARK  139  A    between atoms: _334  and  _337
REMARK  140  A    between atoms: _337  and  _338
REMARK  141  A    between atoms: _343  and  _344
REMARK  142  A    between atoms: _346  and  _348
REMARK  143  A    between atoms: _348  and  _349
REMARK  144  A    between atoms: _348  and  _351
REMARK  145  A    between atoms: _354  and  _356
REMARK  146  A    between atoms: _356  and  _357
REMARK  147  A    between atoms: _356  and  _359
REMARK  148  A    between atoms: _359  and  _360
REMARK  149  A    between atoms: _365  and  _366
REMARK  150  A    between atoms: _368  and  _370
REMARK  151  A    between atoms: _370  and  _371
REMARK  152  A    between atoms: _370  and  _373
REMARK  153  A    between atoms: _373  and  _374
REMARK  154  A    between atoms: _379  and  _380
REMARK  155  A    between atoms: _382  and  _384
REMARK  156  A    between atoms: _384  and  _385
REMARK  157  A    between atoms: _384  and  _387
REMARK  158  A    between atoms: _387  and  _388
REMARK  159  A    between atoms: _388  and  _389
REMARK  160  A    between atoms: _392  and  _394
REMARK  161  A    between atoms: _394  and  _395
REMARK  162  A    between atoms: _398  and  _400
REMARK  163  A    between atoms: _400  and  _401
REMARK  164  A    between atoms: _404  and  _406
REMARK  165  A    between atoms: _406  and  _407
REMARK  166  A    between atoms: _406  and  _409
REMARK  167  A    between atoms: _409  and  _410
REMARK  168  A    between atoms: _413  and  _415
REMARK  169  A    between atoms: _415  and  _416
REMARK  170  A    between atoms: _415  and  _418
REMARK  171  A    between atoms: _418  and  _419
REMARK  172  A    between atoms: _422  and  _424
REMARK  173  A    between atoms: _424  and  _425
REMARK  174  A    between atoms: _424  and  _427
REMARK  175  A    between atoms: _427  and  _428
REMARK  176  A    between atoms: _430  and  _432
REMARK  177  A    between atoms: _432  and  _433
REMARK  178  A    between atoms: _432  and  _435
REMARK  179  A    between atoms: _435  and  _436
REMARK  180  A    between atoms: _436  and  _546
REMARK  181  A    between atoms: _437  and  _439
REMARK  182  A    between atoms: _439  and  _440
REMARK  183  A    between atoms: _439  and  _442
REMARK  184  A    between atoms: _442  and  _443
REMARK  185  A    between atoms: _443  and  _444
REMARK  186  A    between atoms: _449  and  _451
REMARK  187  A    between atoms: _451  and  _452
REMARK  188  A    between atoms: _454  and  _456
REMARK  189  A    between atoms: _456  and  _457
REMARK  190  A    between atoms: _456  and  _459
REMARK  191  A    between atoms: _459  and  _460
REMARK  192  A    between atoms: _463  and  _465
REMARK  193  A    between atoms: _465  and  _466
REMARK  194  A    between atoms: _465  and  _468
REMARK  195  A    between atoms: _468  and  _469
REMARK  196  A    between atoms: _471  and  _473
REMARK  197  A    between atoms: _473  and  _474
REMARK  198  A    between atoms: _476  and  _478
REMARK  199  A    between atoms: _478  and  _479
REMARK  200  A    between atoms: _481  and  _483
REMARK  201  A    between atoms: _483  and  _484
REMARK  202  A    between atoms: _483  and  _486
REMARK  203  A    between atoms: _489  and  _491
REMARK  204  A    between atoms: _491  and  _492
REMARK  205  A    between atoms: _491  and  _494
REMARK  206  A    between atoms: _494  and  _495
REMARK  207  A    between atoms: _497  and  _499
REMARK  208  A    between atoms: _499  and  _500
REMARK  209  A    between atoms: _499  and  _502
REMARK  210  A    between atoms: _502  and  _503
REMARK  211  A    between atoms: _513  and  _515
REMARK  212  A    between atoms: _515  and  _516
REMARK  213  A    between atoms: _518  and  _520
REMARK  214  A    between atoms: _520  and  _521
REMARK  215  A    between atoms: _520  and  _523
REMARK  216  A    between atoms: _523  and  _524
REMARK  217  A    between atoms: _524  and  _525
REMARK  218  A    between atoms: _525  and  _526
REMARK  219  A    between atoms: _535  and  _537
REMARK  220  A    between atoms: _537  and  _538
REMARK  221  A    between atoms: _540  and  _542
REMARK  222  A    between atoms: _542  and  _543
REMARK  223  A    between atoms: _542  and  _545
REMARK  224  A    between atoms: _547  and  _549
REMARK  225  A    between atoms: _549  and  _550
REMARK  226  A    between atoms: _553  and  _555
REMARK  227  A    between atoms: _555  and  _556
REMARK  228  A    between atoms: _555  and  _558
REMARK  229  A    between atoms: _558  and  _559
REMARK  230  A    between atoms: _562  and  _564
REMARK  231  A    between atoms: _564  and  _565
REMARK  232  A    between atoms: _564  and  _567
REMARK  233  A    between atoms: _567  and  _568
REMARK  234  A    between atoms: _568  and  _569
REMARK  235  A    between atoms: _569  and  _570
REMARK  236  A    between atoms: _570  and  _571
REMARK  237  A    between atoms: _576  and  _577
REMARK  238  A    between atoms: _582  and  _584
REMARK  239  A    between atoms: _584  and  _585
REMARK  240  A    between atoms: _587  and  _589
REMARK  241  A    between atoms: _589  and  _590
REMARK  242  A    between atoms: _589  and  _592
REMARK  243  A    between atoms: _595  and  _597
REMARK  244  A    between atoms: _597  and  _598
REMARK  245  A    between atoms: _597  and  _600
REMARK  246  A    between atoms: _600  and  _601
REMARK  247  A    between atoms: _606  and  _607
REMARK                            x       y       z     vdW  Elec       q    Type
REMARK                         _______ _______ _______ _____ _____    ______ ____
ROOT
ATOM      1  O   HOH     1       7.248 -26.510 -23.512  0.00  0.00    +0.000 OA
ENDROOT
TORSDOF 0
REMARK  Name = ../refined-set-2016/4zhl/4zhl_pocket.pdb
REMARK  247 active torsions:
REMARK  status: ('A' for Active; 'I' for Inactive)
REMARK    1  A    between atoms: _1  and  _5
REMARK    2  A    between atoms: _5  and  _6
REMARK    3  A    between atoms: _5  and  _8
REMARK    4  A    between atoms: _8  and  _9
REMARK    5  A    between atoms: _12  and  _14
REMARK    6  A    between atoms: _14  and  _15
REMARK    7  A    between atoms: _14  and  _17
REMARK    8  A    between atoms: _17  and  _18
REMARK    9  A    between atoms: _21  and  _23
REMARK   10  A    between atoms: _23  and  _24
REMARK   11  A    between atoms: _23  and  _26
REMARK   12  A    between atoms: _26  and  _27
REMARK   13  A    between atoms: _30  and  _32
REMARK   14  A    between atoms: _32  and  _33
REMARK   15  A    between atoms: _32  and  _35
REMARK   16  A    between atoms: _35  and  _36
REMARK   17  A    between atoms: _36  and  _37
REMARK   18  A    between atoms: _37  and  _38
REMARK   19  A    between atoms: _47  and  _49
REMARK   20  A    between atoms: _49  and  _50
REMARK   21  A    between atoms: _49  and  _52
REMARK   22  A    between atoms: _52  and  _53
REMARK   23  A    between atoms: _56  and  _58
REMARK   24  A    between atoms: _58  and  _59
REMARK   25  A    between atoms: _58  and  _61
REMARK   26  A    between atoms: _61  and  _62
REMARK   27  A    between atoms: _67  and  _68
REMARK   28  A    between atoms: _70  and  _72
REMARK   29  A    between atoms: _72  and  _73
REMARK   30  A    between atoms: _72  and  _75
REMARK   31  A    between atoms: _78  and  _80
REMARK   32  A    between atoms: _80  and  _81
REMARK   33  A    between atoms: _80  and  _83
REMARK   34  A    between atoms: _83  and  _84
REMARK   35  A    between atoms: _84  and  _122
REMARK   36  A    between atoms: _85  and  _87
REMARK   37  A    between atoms: _87  and  _88
REMARK   38  A    between atoms: _90  and  _92
REMARK   39  A    between atoms: _92  and  _93
REMARK   40  A    between atoms: _96  and  _98
REMARK   41  A    between atoms: _98  and  _99
REMARK   42  A    between atoms: _98  and  _101
REMARK   43  A    between atoms: _101  and  _102
REMARK   44  A    between atoms: _105  and  _107
REMARK   45  A    between atoms: _107  and  _108
REMARK   46  A    between atoms: _107  and  _110
REMARK   47  A    between atoms: _110  and  _111
REMARK   48  A    between atoms: _116  and  _118
REMARK   49  A    between atoms: _118  and  _119
REMARK   50  A    between atoms: _118  and  _121
REMARK   51  A    between atoms: _121  and  _122
REMARK   52  A    between atoms: _123  and  _125
REMARK   53  A    between atoms: _125  and  _126
REMARK   54  A    between atoms: _125  and  _128
REMARK   55  A    between atoms: _128  and  _129
REMARK   56  A    between atoms: _135  and  _137
REMARK   57  A    between atoms: _137  and  _138
REMARK   58  A    between atoms: _137  and  _140
REMARK   59  A    between atoms: _140  and  _141
REMARK   60  A    between atoms: _144  and  _146
REMARK   61  A    between atoms: _146  and  _147
REMARK   62  A    between atoms: _146  and  _149
REMARK   63  A    between atoms: _149  and  _150
REMARK   64  A    between atoms: _153  and  _155
REMARK   65  A    between atoms: _155  and  _156
REMARK   66  A    between atoms: _155  and  _158
REMARK   67  A    between atoms: _158  and  _159
REMARK   68  A    between atoms: _164  and  _165
REMARK   69  A    between atoms: _167  and  _169
REMARK   70  A    between atoms: _169  and  _170
REMARK   71  A    between atoms: _169  and  _172
REMARK   72  A    between atoms: _172  and  _173
REMARK   73  A    between atoms: _178  and  _179
REMARK   74  A    between atoms: _181  and  _183
REMARK   75  A    between atoms: _183  and  _184
REMARK   76  A    between atoms: _183  and  _186
REMARK   77  A    between atoms: _186  and  _187
REMARK   78  A    between atoms: _190  and  _192
REMARK   79  A    between atoms: _192  and  _193
REMARK   80  A    between atoms: _192  and  _195
REMARK   81  A    between atoms: _195  and  _196
REMARK   82  A    between atoms: _201  and  _202
REMARK   83  A    between atoms: _204  and  _206
REMARK   84  A    between atoms: _206  and  _207
REMARK   85  A    between atoms: _206  and  _209
REMARK   86  A    between atoms: _209  and  _210
REMARK   87  A    between atoms: _212  and  _214
REMARK   88  A    between atoms: _214  and  _215
REMARK   89  A    between atoms: _218  and  _220
REMARK   90  A    between atoms: _220  and  _221
REMARK   91  A    between atoms: _220  and  _223
REMARK   92  A    between atoms: _223  and  _224
REMARK   93  A    between atoms: _227  and  _229
REMARK   94  A    between atoms: _229  and  _230
REMARK   95  A    between atoms: _229  and  _232
REMARK   96  A    between atoms: _232  and  _233
REMARK   97  A    between atoms: _236  and  _238
REMARK   98  A    between atoms: _238  and  _239
REMARK   99  A    between atoms: _238  and  _241
REMARK  100  A    between atoms: _241  and  _242
REMARK  101  A    between atoms: _245  and  _247
REMARK  102  A    between atoms: _247  and  _248
REMARK  103  A    between atoms: _251  and  _253
REMARK  104  A    between atoms: _253  and  _254
REMARK  105  A    between atoms: _253  and  _256
REMARK  106  A    between atoms: _256  and  _257
REMARK  107  A    between atoms: _262  and  _263
REMARK  108  A    between atoms: _265  and  _267
REMARK  109  A    between atoms: _267  and  _268
REMARK  110  A    between atoms: _267  and  _270
REMARK  111  A    between atoms: _270  and  _271
REMARK  112  A    between atoms: _276  and  _278
REMARK  113  A    between atoms: _278  and  _279
REMARK  114  A    between atoms: _278  and  _281
REMARK  115  A    between atoms: _281  and  _282
REMARK  116  A    between atoms: _285  and  _287
REMARK  117  A    between atoms: _287  and  _288
REMARK  118  A    between atoms: _287  and  _290
REMARK  119  A    between atoms: _290  and  _291
REMARK  120  A    between atoms: _294  and  _296
REMARK  121  A    between atoms: _296  and  _297
REMARK  122  A    between atoms: _296  and  _299
REMARK  123  A    between atoms: _299  and  _300
REMARK  124  A    between atoms: _306  and  _308
REMARK  125  A    between atoms: _308  and  _309
REMARK  126  A    between atoms: _311  and  _313
REMARK  127  A    between atoms: _313  and  _314
REMARK  128  A    between atoms: _313  and  _316
REMARK  129  A    between atoms: _316  and  _317
REMARK  130  A    between atoms: _317  and  _318
REMARK  131  A    between atoms: _318  and  _319
REMARK  132  A    between atoms: _319  and  _320
REMARK  133  A    between atoms: _324  and  _326
REMARK  134  A    between atoms: _326  and  _327
REMARK  135  A    between atoms: _326  and  _329
REMARK  136  A    between atoms: _329  and  _330
REMARK  137  A    between atoms: _332  and  _334
REMARK  138  A    between atoms: _334  and  _335
REMARK  139  A    between atoms: _334  and  _337
REMARK  140  A    between atoms: _337  and  _338
REMARK  141  A    between atoms: _343  and  _344
REMARK  142  A    between atoms: _346  and  _348
REMARK  143  A    between atoms: _348  and  _349
REMARK  144  A    between atoms: _348  and  _351
REMARK  145  A    between atoms: _354  and  _356
REMARK  146  A    between atoms: _356  and  _357
REMARK  147  A    between atoms: _356  and  _359
REMARK  148  A    between atoms: _359  and  _360
REMARK  149  A    between atoms: _365  and  _366
REMARK  150  A    between atoms: _368  and  _370
REMARK  151  A    between atoms: _370  and  _371
REMARK  152  A    between atoms: _370  and  _373
REMARK  153  A    between atoms: _373  and  _374
REMARK  154  A    between atoms: _379  and  _380
REMARK  155  A    between atoms: _382  and  _384
REMARK  156  A    between atoms: _384  and  _385
REMARK  157  A    between atoms: _384  and  _387
REMARK  158  A    between atoms: _387  and  _388
REMARK  159  A    between atoms: _388  and  _389
REMARK  160  A    between atoms: _392  and  _394
REMARK  161  A    between atoms: _394  and  _395
REMARK  162  A    between atoms: _398  and  _400
REMARK  163  A    between atoms: _400  and  _401
REMARK  164  A    between atoms: _404  and  _406
REMARK  165  A    between atoms: _406  and  _407
REMARK  166  A    between atoms: _406  and  _409
REMARK  167  A    between atoms: _409  and  _410
REMARK  168  A    between atoms: _413  and  _415
REMARK  169  A    between atoms: _415  and  _416
REMARK  170  A    between atoms: _415  and  _418
REMARK  171  A    between atoms: _418  and  _419
REMARK  172  A    between atoms: _422  and  _424
REMARK  173  A    between atoms: _424  and  _425
REMARK  174  A    between atoms: _424  and  _427
REMARK  175  A    between atoms: _427  and  _428
REMARK  176  A    between atoms: _430  and  _432
REMARK  177  A    between atoms: _432  and  _433
REMARK  178  A    between atoms: _432  and  _435
REMARK  179  A    between atoms: _435  and  _436
REMARK  180  A    between atoms: _436  and  _546
REMARK  181  A    between atoms: _437  and  _439
REMARK  182  A    between atoms: _439  and  _440
REMARK  183  A    between atoms: _439  and  _442
REMARK  184  A    between atoms: _442  and  _443
REMARK  185  A    between atoms: _443  and  _444
REMARK  186  A    between atoms: _449  and  _451
REMARK  187  A    between atoms: _451  and  _452
REMARK  188  A    between atoms: _454  and  _456
REMARK  189  A    between atoms: _456  and  _457
REMARK  190  A    between atoms: _456  and  _459
REMARK  191  A    between atoms: _459  and  _460
REMARK  192  A    between atoms: _463  and  _465
REMARK  193  A    between atoms: _465  and  _466
REMARK  194  A    between atoms: _465  and  _468
REMARK  195  A    between atoms: _468  and  _469
REMARK  196  A    between atoms: _471  and  _473
REMARK  197  A    between atoms: _473  and  _474
REMARK  198  A    between atoms: _476  and  _478
REMARK  199  A    between atoms: _478  and  _479
REMARK  200  A    between atoms: _481  and  _483
REMARK  201  A    between atoms: _483  and  _484
REMARK  202  A    between atoms: _483  and  _486
REMARK  203  A    between atoms: _489  and  _491
REMARK  204  A    between atoms: _491  and  _492
REMARK  205  A    between atoms: _491  and  _494
REMARK  206  A    between atoms: _494  and  _495
REMARK  207  A    between atoms: _497  and  _499
REMARK  208  A    between atoms: _499  and  _500
REMARK  209  A    between atoms: _499  and  _502
REMARK  210  A    between atoms: _502  and  _503
REMARK  211  A    between atoms: _513  and  _515
REMARK  212  A    between atoms: _515  and  _516
REMARK  213  A    between atoms: _518  and  _520
REMARK  214  A    between atoms: _520  and  _521
REMARK  215  A    between atoms: _520  and  _523
REMARK  216  A    between atoms: _523  and  _524
REMARK  217  A    between atoms: _524  and  _525
REMARK  218  A    between atoms: _525  and  _526
REMARK  219  A    between atoms: _535  and  _537
REMARK  220  A    between atoms: _537  and  _538
REMARK  221  A    between atoms: _540  and  _542
REMARK  222  A    between atoms: _542  and  _543
REMARK  223  A    between atoms: _542  and  _545
REMARK  224  A    between atoms: _547  and  _549
REMARK  225  A    between atoms: _549  and  _550
REMARK  226  A    between atoms: _553  and  _555
REMARK  227  A    between atoms: _555  and  _556
REMARK  228  A    between atoms: _555  and  _558
REMARK  229  A    between atoms: _558  and  _559
REMARK  230  A    between atoms: _562  and  _564
REMARK  231  A    between atoms: _564  and  _565
REMARK  232  A    between atoms: _564  and  _567
REMARK  233  A    between atoms: _567  and  _568
REMARK  234  A    between atoms: _568  and  _569
REMARK  235  A    between atoms: _569  and  _570
REMARK  236  A    between atoms: _570  and  _571
REMARK  237  A    between atoms: _576  and  _577
REMARK  238  A    between atoms: _582  and  _584
REMARK  239  A    between atoms: _584  and  _585
REMARK  240  A    between atoms: _587  and  _589
REMARK  241  A    between atoms: _589  and  _590
REMARK  242  A    between atoms: _589  and  _592
REMARK  243  A    between atoms: _595  and  _597
REMARK  244  A    between atoms: _597  and  _598
REMARK  245  A    between atoms: _597  and  _600
REMARK  246  A    between atoms: _600  and  _601
REMARK  247  A    between atoms: _606  and  _607
REMARK                            x       y       z     vdW  Elec       q    Type
REMARK                         _______ _______ _______ _____ _____    ______ ____
ROOT
ATOM      1  O   HOH     1      -3.871 -24.043 -27.314  0.00  0.00    +0.000 OA
ENDROOT
TORSDOF 0
REMARK  Name = ../refined-set-2016/4zhl/4zhl_pocket.pdb
REMARK  247 active torsions:
REMARK  status: ('A' for Active; 'I' for Inactive)
REMARK    1  A    between atoms: _1  and  _5
REMARK    2  A    between atoms: _5  and  _6
REMARK    3  A    between atoms: _5  and  _8
REMARK    4  A    between atoms: _8  and  _9
REMARK    5  A    between atoms: _12  and  _14
REMARK    6  A    between atoms: _14  and  _15
REMARK    7  A    between atoms: _14  and  _17
REMARK    8  A    between atoms: _17  and  _18
REMARK    9  A    between atoms: _21  and  _23
REMARK   10  A    between atoms: _23  and  _24
REMARK   11  A    between atoms: _23  and  _26
REMARK   12  A    between atoms: _26  and  _27
REMARK   13  A    between atoms: _30  and  _32
REMARK   14  A    between atoms: _32  and  _33
REMARK   15  A    between atoms: _32  and  _35
REMARK   16  A    between atoms: _35  and  _36
REMARK   17  A    between atoms: _36  and  _37
REMARK   18  A    between atoms: _37  and  _38
REMARK   19  A    between atoms: _47  and  _49
REMARK   20  A    between atoms: _49  and  _50
REMARK   21  A    between atoms: _49  and  _52
REMARK   22  A    between atoms: _52  and  _53
REMARK   23  A    between atoms: _56  and  _58
REMARK   24  A    between atoms: _58  and  _59
REMARK   25  A    between atoms: _58  and  _61
REMARK   26  A    between atoms: _61  and  _62
REMARK   27  A    between atoms: _67  and  _68
REMARK   28  A    between atoms: _70  and  _72
REMARK   29  A    between atoms: _72  and  _73
REMARK   30  A    between atoms: _72  and  _75
REMARK   31  A    between atoms: _78  and  _80
REMARK   32  A    between atoms: _80  and  _81
REMARK   33  A    between atoms: _80  and  _83
REMARK   34  A    between atoms: _83  and  _84
REMARK   35  A    between atoms: _84  and  _122
REMARK   36  A    between atoms: _85  and  _87
REMARK   37  A    between atoms: _87  and  _88
REMARK   38  A    between atoms: _90  and  _92
REMARK   39  A    between atoms: _92  and  _93
REMARK   40  A    between atoms: _96  and  _98
REMARK   41  A    between atoms: _98  and  _99
REMARK   42  A    between atoms: _98  and  _101
REMARK   43  A    between atoms: _101  and  _102
REMARK   44  A    between atoms: _105  and  _107
REMARK   45  A    between atoms: _107  and  _108
REMARK   46  A    between atoms: _107  and  _110
REMARK   47  A    between atoms: _110  and  _111
REMARK   48  A    between atoms: _116  and  _118
REMARK   49  A    between atoms: _118  and  _119
REMARK   50  A    between atoms: _118  and  _121
REMARK   51  A    between atoms: _121  and  _122
REMARK   52  A    between atoms: _123  and  _125
REMARK   53  A    between atoms: _125  and  _126
REMARK   54  A    between atoms: _125  and  _128
REMARK   55  A    between atoms: _128  and  _129
REMARK   56  A    between atoms: _135  and  _137
REMARK   57  A    between atoms: _137  and  _138
REMARK   58  A    between atoms: _137  and  _140
REMARK   59  A    between atoms: _140  and  _141
REMARK   60  A    between atoms: _144  and  _146
REMARK   61  A    between atoms: _146  and  _147
REMARK   62  A    between atoms: _146  and  _149
REMARK   63  A    between atoms: _149  and  _150
REMARK   64  A    between atoms: _153  and  _155
REMARK   65  A    between atoms: _155  and  _156
REMARK   66  A    between atoms: _155  and  _158
REMARK   67  A    between atoms: _158  and  _159
REMARK   68  A    between atoms: _164  and  _165
REMARK   69  A    between atoms: _167  and  _169
REMARK   70  A    between atoms: _169  and  _170
REMARK   71  A    between atoms: _169  and  _172
REMARK   72  A    between atoms: _172  and  _173
REMARK   73  A    between atoms: _178  and  _179
REMARK   74  A    between atoms: _181  and  _183
REMARK   75  A    between atoms: _183  and  _184
REMARK   76  A    between atoms: _183  and  _186
REMARK   77  A    between atoms: _186  and  _187
REMARK   78  A    between atoms: _190  and  _192
REMARK   79  A    between atoms: _192  and  _193
REMARK   80  A    between atoms: _192  and  _195
REMARK   81  A    between atoms: _195  and  _196
REMARK   82  A    between atoms: _201  and  _202
REMARK   83  A    between atoms: _204  and  _206
REMARK   84  A    between atoms: _206  and  _207
REMARK   85  A    between atoms: _206  and  _209
REMARK   86  A    between atoms: _209  and  _210
REMARK   87  A    between atoms: _212  and  _214
REMARK   88  A    between atoms: _214  and  _215
REMARK   89  A    between atoms: _218  and  _220
REMARK   90  A    between atoms: _220  and  _221
REMARK   91  A    between atoms: _220  and  _223
REMARK   92  A    between atoms: _223  and  _224
REMARK   93  A    between atoms: _227  and  _229
REMARK   94  A    between atoms: _229  and  _230
REMARK   95  A    between atoms: _229  and  _232
REMARK   96  A    between atoms: _232  and  _233
REMARK   97  A    between atoms: _236  and  _238
REMARK   98  A    between atoms: _238  and  _239
REMARK   99  A    between atoms: _238  and  _241
REMARK  100  A    between atoms: _241  and  _242
REMARK  101  A    between atoms: _245  and  _247
REMARK  102  A    between atoms: _247  and  _248
REMARK  103  A    between atoms: _251  and  _253
REMARK  104  A    between atoms: _253  and  _254
REMARK  105  A    between atoms: _253  and  _256
REMARK  106  A    between atoms: _256  and  _257
REMARK  107  A    between atoms: _262  and  _263
REMARK  108  A    between atoms: _265  and  _267
REMARK  109  A    between atoms: _267  and  _268
REMARK  110  A    between atoms: _267  and  _270
REMARK  111  A    between atoms: _270  and  _271
REMARK  112  A    between atoms: _276  and  _278
REMARK  113  A    between atoms: _278  and  _279
REMARK  114  A    between atoms: _278  and  _281
REMARK  115  A    between atoms: _281  and  _282
REMARK  116  A    between atoms: _285  and  _287
REMARK  117  A    between atoms: _287  and  _288
REMARK  118  A    between atoms: _287  and  _290
REMARK  119  A    between atoms: _290  and  _291
REMARK  120  A    between atoms: _294  and  _296
REMARK  121  A    between atoms: _296  and  _297
REMARK  122  A    between atoms: _296  and  _299
REMARK  123  A    between atoms: _299  and  _300
REMARK  124  A    between atoms: _306  and  _308
REMARK  125  A    between atoms: _308  and  _309
REMARK  126  A    between atoms: _311  and  _313
REMARK  127  A    between atoms: _313  and  _314
REMARK  128  A    between atoms: _313  and  _316
REMARK  129  A    between atoms: _316  and  _317
REMARK  130  A    between atoms: _317  and  _318
REMARK  131  A    between atoms: _318  and  _319
REMARK  132  A    between atoms: _319  and  _320
REMARK  133  A    between atoms: _324  and  _326
REMARK  134  A    between atoms: _326  and  _327
REMARK  135  A    between atoms: _326  and  _329
REMARK  136  A    between atoms: _329  and  _330
REMARK  137  A    between atoms: _332  and  _334
REMARK  138  A    between atoms: _334  and  _335
REMARK  139  A    between atoms: _334  and  _337
REMARK  140  A    between atoms: _337  and  _338
REMARK  141  A    between atoms: _343  and  _344
REMARK  142  A    between atoms: _346  and  _348
REMARK  143  A    between atoms: _348  and  _349
REMARK  144  A    between atoms: _348  and  _351
REMARK  145  A    between atoms: _354  and  _356
REMARK  146  A    between atoms: _356  and  _357
REMARK  147  A    between atoms: _356  and  _359
REMARK  148  A    between atoms: _359  and  _360
REMARK  149  A    between atoms: _365  and  _366
REMARK  150  A    between atoms: _368  and  _370
REMARK  151  A    between atoms: _370  and  _371
REMARK  152  A    between atoms: _370  and  _373
REMARK  153  A    between atoms: _373  and  _374
REMARK  154  A    between atoms: _379  and  _380
REMARK  155  A    between atoms: _382  and  _384
REMARK  156  A    between atoms: _384  and  _385
REMARK  157  A    between atoms: _384  and  _387
REMARK  158  A    between atoms: _387  and  _388
REMARK  159  A    between atoms: _388  and  _389
REMARK  160  A    between atoms: _392  and  _394
REMARK  161  A    between atoms: _394  and  _395
REMARK  162  A    between atoms: _398  and  _400
REMARK  163  A    between atoms: _400  and  _401
REMARK  164  A    between atoms: _404  and  _406
REMARK  165  A    between atoms: _406  and  _407
REMARK  166  A    between atoms: _406  and  _409
REMARK  167  A    between atoms: _409  and  _410
REMARK  168  A    between atoms: _413  and  _415
REMARK  169  A    between atoms: _415  and  _416
REMARK  170  A    between atoms: _415  and  _418
REMARK  171  A    between atoms: _418  and  _419
REMARK  172  A    between atoms: _422  and  _424
REMARK  173  A    between atoms: _424  and  _425
REMARK  174  A    between atoms: _424  and  _427
REMARK  175  A    between atoms: _427  and  _428
REMARK  176  A    between atoms: _430  and  _432
REMARK  177  A    between atoms: _432  and  _433
REMARK  178  A    between atoms: _432  and  _435
REMARK  179  A    between atoms: _435  and  _436
REMARK  180  A    between atoms: _436  and  _546
REMARK  181  A    between atoms: _437  and  _439
REMARK  182  A    between atoms: _439  and  _440
REMARK  183  A    between atoms: _439  and  _442
REMARK  184  A    between atoms: _442  and  _443
REMARK  185  A    between atoms: _443  and  _444
REMARK  186  A    between atoms: _449  and  _451
REMARK  187  A    between atoms: _451  and  _452
REMARK  188  A    between atoms: _454  and  _456
REMARK  189  A    between atoms: _456  and  _457
REMARK  190  A    between atoms: _456  and  _459
REMARK  191  A    between atoms: _459  and  _460
REMARK  192  A    between atoms: _463  and  _465
REMARK  193  A    between atoms: _465  and  _466
REMARK  194  A    between atoms: _465  and  _468
REMARK  195  A    between atoms: _468  and  _469
REMARK  196  A    between atoms: _471  and  _473
REMARK  197  A    between atoms: _473  and  _474
REMARK  198  A    between atoms: _476  and  _478
REMARK  199  A    between atoms: _478  and  _479
REMARK  200  A    between atoms: _481  and  _483
REMARK  201  A    between atoms: _483  and  _484
REMARK  202  A    between atoms: _483  and  _486
REMARK  203  A    between atoms: _489  and  _491
REMARK  204  A    between atoms: _491  and  _492
REMARK  205  A    between atoms: _491  and  _494
REMARK  206  A    between atoms: _494  and  _495
REMARK  207  A    between atoms: _497  and  _499
REMARK  208  A    between atoms: _499  and  _500
REMARK  209  A    between atoms: _499  and  _502
REMARK  210  A    between atoms: _502  and  _503
REMARK  211  A    between atoms: _513  and  _515
REMARK  212  A    between atoms: _515  and  _516
REMARK  213  A    between atoms: _518  and  _520
REMARK  214  A    between atoms: _520  and  _521
REMARK  215  A    between atoms: _520  and  _523
REMARK  216  A    between atoms: _523  and  _524
REMARK  217  A    between atoms: _524  and  _525
REMARK  218  A    between atoms: _525  and  _526
REMARK  219  A    between atoms: _535  and  _537
REMARK  220  A    between atoms: _537  and  _538
REMARK  221  A    between atoms: _540  and  _542
REMARK  222  A    between atoms: _542  and  _543
REMARK  223  A    between atoms: _542  and  _545
REMARK  224  A    between atoms: _547  and  _549
REMARK  225  A    between atoms: _549  and  _550
REMARK  226  A    between atoms: _553  and  _555
REMARK  227  A    between atoms: _555  and  _556
REMARK  228  A    between atoms: _555  and  _558
REMARK  229  A    between atoms: _558  and  _559
REMARK  230  A    between atoms: _562  and  _564
REMARK  231  A    between atoms: _564  and  _565
REMARK  232  A    between atoms: _564  and  _567
REMARK  233  A    between atoms: _567  and  _568
REMARK  234  A    between atoms: _568  and  _569
REMARK  235  A    between atoms: _569  and  _570
REMARK  236  A    between atoms: _570  and  _571
REMARK  237  A    between atoms: _576  and  _577
REMARK  238  A    between atoms: _582  and  _584
REMARK  239  A    between atoms: _584  and  _585
REMARK  240  A    between atoms: _587  and  _589
REMARK  241  A    between atoms: _589  and  _590
REMARK  242  A    between atoms: _589  and  _592
REMARK  243  A    between atoms: _595  and  _597
REMARK  244  A    between atoms: _597  and  _598
REMARK  245  A    between atoms: _597  and  _600
REMARK  246  A    between atoms: _600  and  _601
REMARK  247  A    between atoms: _606  and  _607
REMARK                            x       y       z     vdW  Elec       q    Type
REMARK                         _______ _______ _______ _____ _____    ______ ____
ROOT
ATOM      1  O   HOH     1      -6.024 -30.401 -17.786  0.00  0.00    +0.000 OA
ENDROOT
TORSDOF 0
REMARK  Name = ../refined-set-2016/4zhl/4zhl_pocket.pdb
REMARK  247 active torsions:
REMARK  status: ('A' for Active; 'I' for Inactive)
REMARK    1  A    between atoms: _1  and  _5
REMARK    2  A    between atoms: _5  and  _6
REMARK    3  A    between atoms: _5  and  _8
REMARK    4  A    between atoms: _8  and  _9
REMARK    5  A    between atoms: _12  and  _14
REMARK    6  A    between atoms: _14  and  _15
REMARK    7  A    between atoms: _14  and  _17
REMARK    8  A    between atoms: _17  and  _18
REMARK    9  A    between atoms: _21  and  _23
REMARK   10  A    between atoms: _23  and  _24
REMARK   11  A    between atoms: _23  and  _26
REMARK   12  A    between atoms: _26  and  _27
REMARK   13  A    between atoms: _30  and  _32
REMARK   14  A    between atoms: _32  and  _33
REMARK   15  A    between atoms: _32  and  _35
REMARK   16  A    between atoms: _35  and  _36
REMARK   17  A    between atoms: _36  and  _37
REMARK   18  A    between atoms: _37  and  _38
REMARK   19  A    between atoms: _47  and  _49
REMARK   20  A    between atoms: _49  and  _50
REMARK   21  A    between atoms: _49  and  _52
REMARK   22  A    between atoms: _52  and  _53
REMARK   23  A    between atoms: _56  and  _58
REMARK   24  A    between atoms: _58  and  _59
REMARK   25  A    between atoms: _58  and  _61
REMARK   26  A    between atoms: _61  and  _62
REMARK   27  A    between atoms: _67  and  _68
REMARK   28  A    between atoms: _70  and  _72
REMARK   29  A    between atoms: _72  and  _73
REMARK   30  A    between atoms: _72  and  _75
REMARK   31  A    between atoms: _78  and  _80
REMARK   32  A    between atoms: _80  and  _81
REMARK   33  A    between atoms: _80  and  _83
REMARK   34  A    between atoms: _83  and  _84
REMARK   35  A    between atoms: _84  and  _122
REMARK   36  A    between atoms: _85  and  _87
REMARK   37  A    between atoms: _87  and  _88
REMARK   38  A    between atoms: _90  and  _92
REMARK   39  A    between atoms: _92  and  _93
REMARK   40  A    between atoms: _96  and  _98
REMARK   41  A    between atoms: _98  and  _99
REMARK   42  A    between atoms: _98  and  _101
REMARK   43  A    between atoms: _101  and  _102
REMARK   44  A    between atoms: _105  and  _107
REMARK   45  A    between atoms: _107  and  _108
REMARK   46  A    between atoms: _107  and  _110
REMARK   47  A    between atoms: _110  and  _111
REMARK   48  A    between atoms: _116  and  _118
REMARK   49  A    between atoms: _118  and  _119
REMARK   50  A    between atoms: _118  and  _121
REMARK   51  A    between atoms: _121  and  _122
REMARK   52  A    between atoms: _123  and  _125
REMARK   53  A    between atoms: _125  and  _126
REMARK   54  A    between atoms: _125  and  _128
REMARK   55  A    between atoms: _128  and  _129
REMARK   56  A    between atoms: _135  and  _137
REMARK   57  A    between atoms: _137  and  _138
REMARK   58  A    between atoms: _137  and  _140
REMARK   59  A    between atoms: _140  and  _141
REMARK   60  A    between atoms: _144  and  _146
REMARK   61  A    between atoms: _146  and  _147
REMARK   62  A    between atoms: _146  and  _149
REMARK   63  A    between atoms: _149  and  _150
REMARK   64  A    between atoms: _153  and  _155
REMARK   65  A    between atoms: _155  and  _156
REMARK   66  A    between atoms: _155  and  _158
REMARK   67  A    between atoms: _158  and  _159
REMARK   68  A    between atoms: _164  and  _165
REMARK   69  A    between atoms: _167  and  _169
REMARK   70  A    between atoms: _169  and  _170
REMARK   71  A    between atoms: _169  and  _172
REMARK   72  A    between atoms: _172  and  _173
REMARK   73  A    between atoms: _178  and  _179
REMARK   74  A    between atoms: _181  and  _183
REMARK   75  A    between atoms: _183  and  _184
REMARK   76  A    between atoms: _183  and  _186
REMARK   77  A    between atoms: _186  and  _187
REMARK   78  A    between atoms: _190  and  _192
REMARK   79  A    between atoms: _192  and  _193
REMARK   80  A    between atoms: _192  and  _195
REMARK   81  A    between atoms: _195  and  _196
REMARK   82  A    between atoms: _201  and  _202
REMARK   83  A    between atoms: _204  and  _206
REMARK   84  A    between atoms: _206  and  _207
REMARK   85  A    between atoms: _206  and  _209
REMARK   86  A    between atoms: _209  and  _210
REMARK   87  A    between atoms: _212  and  _214
REMARK   88  A    between atoms: _214  and  _215
REMARK   89  A    between atoms: _218  and  _220
REMARK   90  A    between atoms: _220  and  _221
REMARK   91  A    between atoms: _220  and  _223
REMARK   92  A    between atoms: _223  and  _224
REMARK   93  A    between atoms: _227  and  _229
REMARK   94  A    between atoms: _229  and  _230
REMARK   95  A    between atoms: _229  and  _232
REMARK   96  A    between atoms: _232  and  _233
REMARK   97  A    between atoms: _236  and  _238
REMARK   98  A    between atoms: _238  and  _239
REMARK   99  A    between atoms: _238  and  _241
REMARK  100  A    between atoms: _241  and  _242
REMARK  101  A    between atoms: _245  and  _247
REMARK  102  A    between atoms: _247  and  _248
REMARK  103  A    between atoms: _251  and  _253
REMARK  104  A    between atoms: _253  and  _254
REMARK  105  A    between atoms: _253  and  _256
REMARK  106  A    between atoms: _256  and  _257
REMARK  107  A    between atoms: _262  and  _263
REMARK  108  A    between atoms: _265  and  _267
REMARK  109  A    between atoms: _267  and  _268
REMARK  110  A    between atoms: _267  and  _270
REMARK  111  A    between atoms: _270  and  _271
REMARK  112  A    between atoms: _276  and  _278
REMARK  113  A    between atoms: _278  and  _279
REMARK  114  A    between atoms: _278  and  _281
REMARK  115  A    between atoms: _281  and  _282
REMARK  116  A    between atoms: _285  and  _287
REMARK  117  A    between atoms: _287  and  _288
REMARK  118  A    between atoms: _287  and  _290
REMARK  119  A    between atoms: _290  and  _291
REMARK  120  A    between atoms: _294  and  _296
REMARK  121  A    between atoms: _296  and  _297
REMARK  122  A    between atoms: _296  and  _299
REMARK  123  A    between atoms: _299  and  _300
REMARK  124  A    between atoms: _306  and  _308
REMARK  125  A    between atoms: _308  and  _309
REMARK  126  A    between atoms: _311  and  _313
REMARK  127  A    between atoms: _313  and  _314
REMARK  128  A    between atoms: _313  and  _316
REMARK  129  A    between atoms: _316  and  _317
REMARK  130  A    between atoms: _317  and  _318
REMARK  131  A    between atoms: _318  and  _319
REMARK  132  A    between atoms: _319  and  _320
REMARK  133  A    between atoms: _324  and  _326
REMARK  134  A    between atoms: _326  and  _327
REMARK  135  A    between atoms: _326  and  _329
REMARK  136  A    between atoms: _329  and  _330
REMARK  137  A    between atoms: _332  and  _334
REMARK  138  A    between atoms: _334  and  _335
REMARK  139  A    between atoms: _334  and  _337
REMARK  140  A    between atoms: _337  and  _338
REMARK  141  A    between atoms: _343  and  _344
REMARK  142  A    between atoms: _346  and  _348
REMARK  143  A    between atoms: _348  and  _349
REMARK  144  A    between atoms: _348  and  _351
REMARK  145  A    between atoms: _354  and  _356
REMARK  146  A    between atoms: _356  and  _357
REMARK  147  A    between atoms: _356  and  _359
REMARK  148  A    between atoms: _359  and  _360
REMARK  149  A    between atoms: _365  and  _366
REMARK  150  A    between atoms: _368  and  _370
REMARK  151  A    between atoms: _370  and  _371
REMARK  152  A    between atoms: _370  and  _373
REMARK  153  A    between atoms: _373  and  _374
REMARK  154  A    between atoms: _379  and  _380
REMARK  155  A    between atoms: _382  and  _384
REMARK  156  A    between atoms: _384  and  _385
REMARK  157  A    between atoms: _384  and  _387
REMARK  158  A    between atoms: _387  and  _388
REMARK  159  A    between atoms: _388  and  _389
REMARK  160  A    between atoms: _392  and  _394
REMARK  161  A    between atoms: _394  and  _395
REMARK  162  A    between atoms: _398  and  _400
REMARK  163  A    between atoms: _400  and  _401
REMARK  164  A    between atoms: _404  and  _406
REMARK  165  A    between atoms: _406  and  _407
REMARK  166  A    between atoms: _406  and  _409
REMARK  167  A    between atoms: _409  and  _410
REMARK  168  A    between atoms: _413  and  _415
REMARK  169  A    between atoms: _415  and  _416
REMARK  170  A    between atoms: _415  and  _418
REMARK  171  A    between atoms: _418  and  _419
REMARK  172  A    between atoms: _422  and  _424
REMARK  173  A    between atoms: _424  and  _425
REMARK  174  A    between atoms: _424  and  _427
REMARK  175  A    between atoms: _427  and  _428
REMARK  176  A    between atoms: _430  and  _432
REMARK  177  A    between atoms: _432  and  _433
REMARK  178  A    between atoms: _432  and  _435
REMARK  179  A    between atoms: _435  and  _436
REMARK  180  A    between atoms: _436  and  _546
REMARK  181  A    between atoms: _437  and  _439
REMARK  182  A    between atoms: _439  and  _440
REMARK  183  A    between atoms: _439  and  _442
REMARK  184  A    between atoms: _442  and  _443
REMARK  185  A    between atoms: _443  and  _444
REMARK  186  A    between atoms: _449  and  _451
REMARK  187  A    between atoms: _451  and  _452
REMARK  188  A    between atoms: _454  and  _456
REMARK  189  A    between atoms: _456  and  _457
REMARK  190  A    between atoms: _456  and  _459
REMARK  191  A    between atoms: _459  and  _460
REMARK  192  A    between atoms: _463  and  _465
REMARK  193  A    between atoms: _465  and  _466
REMARK  194  A    between atoms: _465  and  _468
REMARK  195  A    between atoms: _468  and  _469
REMARK  196  A    between atoms: _471  and  _473
REMARK  197  A    between atoms: _473  and  _474
REMARK  198  A    between atoms: _476  and  _478
REMARK  199  A    between atoms: _478  and  _479
REMARK  200  A    between atoms: _481  and  _483
REMARK  201  A    between atoms: _483  and  _484
REMARK  202  A    between atoms: _483  and  _486
REMARK  203  A    between atoms: _489  and  _491
REMARK  204  A    between atoms: _491  and  _492
REMARK  205  A    between atoms: _491  and  _494
REMARK  206  A    between atoms: _494  and  _495
REMARK  207  A    between atoms: _497  and  _499
REMARK  208  A    between atoms: _499  and  _500
REMARK  209  A    between atoms: _499  and  _502
REMARK  210  A    between atoms: _502  and  _503
REMARK  211  A    between atoms: _513  and  _515
REMARK  212  A    between atoms: _515  and  _516
REMARK  213  A    between atoms: _518  and  _520
REMARK  214  A    between atoms: _520  and  _521
REMARK  215  A    between atoms: _520  and  _523
REMARK  216  A    between atoms: _523  and  _524
REMARK  217  A    between atoms: _524  and  _525
REMARK  218  A    between atoms: _525  and  _526
REMARK  219  A    between atoms: _535  and  _537
REMARK  220  A    between atoms: _537  and  _538
REMARK  221  A    between atoms: _540  and  _542
REMARK  222  A    between atoms: _542  and  _543
REMARK  223  A    between atoms: _542  and  _545
REMARK  224  A    between atoms: _547  and  _549
REMARK  225  A    between atoms: _549  and  _550
REMARK  226  A    between atoms: _553  and  _555
REMARK  227  A    between atoms: _555  and  _556
REMARK  228  A    between atoms: _555  and  _558
REMARK  229  A    between atoms: _558  and  _559
REMARK  230  A    between atoms: _562  and  _564
REMARK  231  A    between atoms: _564  and  _565
REMARK  232  A    between atoms: _564  and  _567
REMARK  233  A    between atoms: _567  and  _568
REMARK  234  A    between atoms: _568  and  _569
REMARK  235  A    between atoms: _569  and  _570
REMARK  236  A    between atoms: _570  and  _571
REMARK  237  A    between atoms: _576  and  _577
REMARK  238  A    between atoms: _582  and  _584
REMARK  239  A    between atoms: _584  and  _585
REMARK  240  A    between atoms: _587  and  _589
REMARK  241  A    between atoms: _589  and  _590
REMARK  242  A    between atoms: _589  and  _592
REMARK  243  A    between atoms: _595  and  _597
REMARK  244  A    between atoms: _597  and  _598
REMARK  245  A    between atoms: _597  and  _600
REMARK  246  A    between atoms: _600  and  _601
REMARK  247  A    between atoms: _606  and  _607
REMARK                            x       y       z     vdW  Elec       q    Type
REMARK                         _______ _______ _______ _____ _____    ______ ____
ROOT
ATOM      1  O   HOH     1       3.279 -31.441 -22.381  0.00  0.00    +0.000 OA
ENDROOT
TORSDOF 0
REMARK  Name = ../refined-set-2016/4zhl/4zhl_pocket.pdb
REMARK  247 active torsions:
REMARK  status: ('A' for Active; 'I' for Inactive)
REMARK    1  A    between atoms: _1  and  _5
REMARK    2  A    between atoms: _5  and  _6
REMARK    3  A    between atoms: _5  and  _8
REMARK    4  A    between atoms: _8  and  _9
REMARK    5  A    between atoms: _12  and  _14
REMARK    6  A    between atoms: _14  and  _15
REMARK    7  A    between atoms: _14  and  _17
REMARK    8  A    between atoms: _17  and  _18
REMARK    9  A    between atoms: _21  and  _23
REMARK   10  A    between atoms: _23  and  _24
REMARK   11  A    between atoms: _23  and  _26
REMARK   12  A    between atoms: _26  and  _27
REMARK   13  A    between atoms: _30  and  _32
REMARK   14  A    between atoms: _32  and  _33
REMARK   15  A    between atoms: _32  and  _35
REMARK   16  A    between atoms: _35  and  _36
REMARK   17  A    between atoms: _36  and  _37
REMARK   18  A    between atoms: _37  and  _38
REMARK   19  A    between atoms: _47  and  _49
REMARK   20  A    between atoms: _49  and  _50
REMARK   21  A    between atoms: _49  and  _52
REMARK   22  A    between atoms: _52  and  _53
REMARK   23  A    between atoms: _56  and  _58
REMARK   24  A    between atoms: _58  and  _59
REMARK   25  A    between atoms: _58  and  _61
REMARK   26  A    between atoms: _61  and  _62
REMARK   27  A    between atoms: _67  and  _68
REMARK   28  A    between atoms: _70  and  _72
REMARK   29  A    between atoms: _72  and  _73
REMARK   30  A    between atoms: _72  and  _75
REMARK   31  A    between atoms: _78  and  _80
REMARK   32  A    between atoms: _80  and  _81
REMARK   33  A    between atoms: _80  and  _83
REMARK   34  A    between atoms: _83  and  _84
REMARK   35  A    between atoms: _84  and  _122
REMARK   36  A    between atoms: _85  and  _87
REMARK   37  A    between atoms: _87  and  _88
REMARK   38  A    between atoms: _90  and  _92
REMARK   39  A    between atoms: _92  and  _93
REMARK   40  A    between atoms: _96  and  _98
REMARK   41  A    between atoms: _98  and  _99
REMARK   42  A    between atoms: _98  and  _101
REMARK   43  A    between atoms: _101  and  _102
REMARK   44  A    between atoms: _105  and  _107
REMARK   45  A    between atoms: _107  and  _108
REMARK   46  A    between atoms: _107  and  _110
REMARK   47  A    between atoms: _110  and  _111
REMARK   48  A    between atoms: _116  and  _118
REMARK   49  A    between atoms: _118  and  _119
REMARK   50  A    between atoms: _118  and  _121
REMARK   51  A    between atoms: _121  and  _122
REMARK   52  A    between atoms: _123  and  _125
REMARK   53  A    between atoms: _125  and  _126
REMARK   54  A    between atoms: _125  and  _128
REMARK   55  A    between atoms: _128  and  _129
REMARK   56  A    between atoms: _135  and  _137
REMARK   57  A    between atoms: _137  and  _138
REMARK   58  A    between atoms: _137  and  _140
REMARK   59  A    between atoms: _140  and  _141
REMARK   60  A    between atoms: _144  and  _146
REMARK   61  A    between atoms: _146  and  _147
REMARK   62  A    between atoms: _146  and  _149
REMARK   63  A    between atoms: _149  and  _150
REMARK   64  A    between atoms: _153  and  _155
REMARK   65  A    between atoms: _155  and  _156
REMARK   66  A    between atoms: _155  and  _158
REMARK   67  A    between atoms: _158  and  _159
REMARK   68  A    between atoms: _164  and  _165
REMARK   69  A    between atoms: _167  and  _169
REMARK   70  A    between atoms: _169  and  _170
REMARK   71  A    between atoms: _169  and  _172
REMARK   72  A    between atoms: _172  and  _173
REMARK   73  A    between atoms: _178  and  _179
REMARK   74  A    between atoms: _181  and  _183
REMARK   75  A    between atoms: _183  and  _184
REMARK   76  A    between atoms: _183  and  _186
REMARK   77  A    between atoms: _186  and  _187
REMARK   78  A    between atoms: _190  and  _192
REMARK   79  A    between atoms: _192  and  _193
REMARK   80  A    between atoms: _192  and  _195
REMARK   81  A    between atoms: _195  and  _196
REMARK   82  A    between atoms: _201  and  _202
REMARK   83  A    between atoms: _204  and  _206
REMARK   84  A    between atoms: _206  and  _207
REMARK   85  A    between atoms: _206  and  _209
REMARK   86  A    between atoms: _209  and  _210
REMARK   87  A    between atoms: _212  and  _214
REMARK   88  A    between atoms: _214  and  _215
REMARK   89  A    between atoms: _218  and  _220
REMARK   90  A    between atoms: _220  and  _221
REMARK   91  A    between atoms: _220  and  _223
REMARK   92  A    between atoms: _223  and  _224
REMARK   93  A    between atoms: _227  and  _229
REMARK   94  A    between atoms: _229  and  _230
REMARK   95  A    between atoms: _229  and  _232
REMARK   96  A    between atoms: _232  and  _233
REMARK   97  A    between atoms: _236  and  _238
REMARK   98  A    between atoms: _238  and  _239
REMARK   99  A    between atoms: _238  and  _241
REMARK  100  A    between atoms: _241  and  _242
REMARK  101  A    between atoms: _245  and  _247
REMARK  102  A    between atoms: _247  and  _248
REMARK  103  A    between atoms: _251  and  _253
REMARK  104  A    between atoms: _253  and  _254
REMARK  105  A    between atoms: _253  and  _256
REMARK  106  A    between atoms: _256  and  _257
REMARK  107  A    between atoms: _262  and  _263
REMARK  108  A    between atoms: _265  and  _267
REMARK  109  A    between atoms: _267  and  _268
REMARK  110  A    between atoms: _267  and  _270
REMARK  111  A    between atoms: _270  and  _271
REMARK  112  A    between atoms: _276  and  _278
REMARK  113  A    between atoms: _278  and  _279
REMARK  114  A    between atoms: _278  and  _281
REMARK  115  A    between atoms: _281  and  _282
REMARK  116  A    between atoms: _285  and  _287
REMARK  117  A    between atoms: _287  and  _288
REMARK  118  A    between atoms: _287  and  _290
REMARK  119  A    between atoms: _290  and  _291
REMARK  120  A    between atoms: _294  and  _296
REMARK  121  A    between atoms: _296  and  _297
REMARK  122  A    between atoms: _296  and  _299
REMARK  123  A    between atoms: _299  and  _300
REMARK  124  A    between atoms: _306  and  _308
REMARK  125  A    between atoms: _308  and  _309
REMARK  126  A    between atoms: _311  and  _313
REMARK  127  A    between atoms: _313  and  _314
REMARK  128  A    between atoms: _313  and  _316
REMARK  129  A    between atoms: _316  and  _317
REMARK  130  A    between atoms: _317  and  _318
REMARK  131  A    between atoms: _318  and  _319
REMARK  132  A    between atoms: _319  and  _320
REMARK  133  A    between atoms: _324  and  _326
REMARK  134  A    between atoms: _326  and  _327
REMARK  135  A    between atoms: _326  and  _329
REMARK  136  A    between atoms: _329  and  _330
REMARK  137  A    between atoms: _332  and  _334
REMARK  138  A    between atoms: _334  and  _335
REMARK  139  A    between atoms: _334  and  _337
REMARK  140  A    between atoms: _337  and  _338
REMARK  141  A    between atoms: _343  and  _344
REMARK  142  A    between atoms: _346  and  _348
REMARK  143  A    between atoms: _348  and  _349
REMARK  144  A    between atoms: _348  and  _351
REMARK  145  A    between atoms: _354  and  _356
REMARK  146  A    between atoms: _356  and  _357
REMARK  147  A    between atoms: _356  and  _359
REMARK  148  A    between atoms: _359  and  _360
REMARK  149  A    between atoms: _365  and  _366
REMARK  150  A    between atoms: _368  and  _370
REMARK  151  A    between atoms: _370  and  _371
REMARK  152  A    between atoms: _370  and  _373
REMARK  153  A    between atoms: _373  and  _374
REMARK  154  A    between atoms: _379  and  _380
REMARK  155  A    between atoms: _382  and  _384
REMARK  156  A    between atoms: _384  and  _385
REMARK  157  A    between atoms: _384  and  _387
REMARK  158  A    between atoms: _387  and  _388
REMARK  159  A    between atoms: _388  and  _389
REMARK  160  A    between atoms: _392  and  _394
REMARK  161  A    between atoms: _394  and  _395
REMARK  162  A    between atoms: _398  and  _400
REMARK  163  A    between atoms: _400  and  _401
REMARK  164  A    between atoms: _404  and  _406
REMARK  165  A    between atoms: _406  and  _407
REMARK  166  A    between atoms: _406  and  _409
REMARK  167  A    between atoms: _409  and  _410
REMARK  168  A    between atoms: _413  and  _415
REMARK  169  A    between atoms: _415  and  _416
REMARK  170  A    between atoms: _415  and  _418
REMARK  171  A    between atoms: _418  and  _419
REMARK  172  A    between atoms: _422  and  _424
REMARK  173  A    between atoms: _424  and  _425
REMARK  174  A    between atoms: _424  and  _427
REMARK  175  A    between atoms: _427  and  _428
REMARK  176  A    between atoms: _430  and  _432
REMARK  177  A    between atoms: _432  and  _433
REMARK  178  A    between atoms: _432  and  _435
REMARK  179  A    between atoms: _435  and  _436
REMARK  180  A    between atoms: _436  and  _546
REMARK  181  A    between atoms: _437  and  _439
REMARK  182  A    between atoms: _439  and  _440
REMARK  183  A    between atoms: _439  and  _442
REMARK  184  A    between atoms: _442  and  _443
REMARK  185  A    between atoms: _443  and  _444
REMARK  186  A    between atoms: _449  and  _451
REMARK  187  A    between atoms: _451  and  _452
REMARK  188  A    between atoms: _454  and  _456
REMARK  189  A    between atoms: _456  and  _457
REMARK  190  A    between atoms: _456  and  _459
REMARK  191  A    between atoms: _459  and  _460
REMARK  192  A    between atoms: _463  and  _465
REMARK  193  A    between atoms: _465  and  _466
REMARK  194  A    between atoms: _465  and  _468
REMARK  195  A    between atoms: _468  and  _469
REMARK  196  A    between atoms: _471  and  _473
REMARK  197  A    between atoms: _473  and  _474
REMARK  198  A    between atoms: _476  and  _478
REMARK  199  A    between atoms: _478  and  _479
REMARK  200  A    between atoms: _481  and  _483
REMARK  201  A    between atoms: _483  and  _484
REMARK  202  A    between atoms: _483  and  _486
REMARK  203  A    between atoms: _489  and  _491
REMARK  204  A    between atoms: _491  and  _492
REMARK  205  A    between atoms: _491  and  _494
REMARK  206  A    between atoms: _494  and  _495
REMARK  207  A    between atoms: _497  and  _499
REMARK  208  A    between atoms: _499  and  _500
REMARK  209  A    between atoms: _499  and  _502
REMARK  210  A    between atoms: _502  and  _503
REMARK  211  A    between atoms: _513  and  _515
REMARK  212  A    between atoms: _515  and  _516
REMARK  213  A    between atoms: _518  and  _520
REMARK  214  A    between atoms: _520  and  _521
REMARK  215  A    between atoms: _520  and  _523
REMARK  216  A    between atoms: _523  and  _524
REMARK  217  A    between atoms: _524  and  _525
REMARK  218  A    between atoms: _525  and  _526
REMARK  219  A    between atoms: _535  and  _537
REMARK  220  A    between atoms: _537  and  _538
REMARK  221  A    between atoms: _540  and  _542
REMARK  222  A    between atoms: _542  and  _543
REMARK  223  A    between atoms: _542  and  _545
REMARK  224  A    between atoms: _547  and  _549
REMARK  225  A    between atoms: _549  and  _550
REMARK  226  A    between atoms: _553  and  _555
REMARK  227  A    between atoms: _555  and  _556
REMARK  228  A    between atoms: _555  and  _558
REMARK  229  A    between atoms: _558  and  _559
REMARK  230  A    between atoms: _562  and  _564
REMARK  231  A    between atoms: _564  and  _565
REMARK  232  A    between atoms: _564  and  _567
REMARK  233  A    between atoms: _567  and  _568
REMARK  234  A    between atoms: _568  and  _569
REMARK  235  A    between atoms: _569  and  _570
REMARK  236  A    between atoms: _570  and  _571
REMARK  237  A    between atoms: _576  and  _577
REMARK  238  A    between atoms: _582  and  _584
REMARK  239  A    between atoms: _584  and  _585
REMARK  240  A    between atoms: _587  and  _589
REMARK  241  A    between atoms: _589  and  _590
REMARK  242  A    between atoms: _589  and  _592
REMARK  243  A    between atoms: _595  and  _597
REMARK  244  A    between atoms: _597  and  _598
REMARK  245  A    between atoms: _597  and  _600
REMARK  246  A    between atoms: _600  and  _601
REMARK  247  A    between atoms: _606  and  _607
REMARK                            x       y       z     vdW  Elec       q    Type
REMARK                         _______ _______ _______ _____ _____    ______ ____
ROOT
ATOM      1  O   HOH     1      -2.060 -42.028 -22.501  0.00  0.00    +0.000 OA
ENDROOT
TORSDOF 0
REMARK  Name = ../refined-set-2016/4zhl/4zhl_pocket.pdb
REMARK  247 active torsions:
REMARK  status: ('A' for Active; 'I' for Inactive)
REMARK    1  A    between atoms: _1  and  _5
REMARK    2  A    between atoms: _5  and  _6
REMARK    3  A    between atoms: _5  and  _8
REMARK    4  A    between atoms: _8  and  _9
REMARK    5  A    between atoms: _12  and  _14
REMARK    6  A    between atoms: _14  and  _15
REMARK    7  A    between atoms: _14  and  _17
REMARK    8  A    between atoms: _17  and  _18
REMARK    9  A    between atoms: _21  and  _23
REMARK   10  A    between atoms: _23  and  _24
REMARK   11  A    between atoms: _23  and  _26
REMARK   12  A    between atoms: _26  and  _27
REMARK   13  A    between atoms: _30  and  _32
REMARK   14  A    between atoms: _32  and  _33
REMARK   15  A    between atoms: _32  and  _35
REMARK   16  A    between atoms: _35  and  _36
REMARK   17  A    between atoms: _36  and  _37
REMARK   18  A    between atoms: _37  and  _38
REMARK   19  A    between atoms: _47  and  _49
REMARK   20  A    between atoms: _49  and  _50
REMARK   21  A    between atoms: _49  and  _52
REMARK   22  A    between atoms: _52  and  _53
REMARK   23  A    between atoms: _56  and  _58
REMARK   24  A    between atoms: _58  and  _59
REMARK   25  A    between atoms: _58  and  _61
REMARK   26  A    between atoms: _61  and  _62
REMARK   27  A    between atoms: _67  and  _68
REMARK   28  A    between atoms: _70  and  _72
REMARK   29  A    between atoms: _72  and  _73
REMARK   30  A    between atoms: _72  and  _75
REMARK   31  A    between atoms: _78  and  _80
REMARK   32  A    between atoms: _80  and  _81
REMARK   33  A    between atoms: _80  and  _83
REMARK   34  A    between atoms: _83  and  _84
REMARK   35  A    between atoms: _84  and  _122
REMARK   36  A    between atoms: _85  and  _87
REMARK   37  A    between atoms: _87  and  _88
REMARK   38  A    between atoms: _90  and  _92
REMARK   39  A    between atoms: _92  and  _93
REMARK   40  A    between atoms: _96  and  _98
REMARK   41  A    between atoms: _98  and  _99
REMARK   42  A    between atoms: _98  and  _101
REMARK   43  A    between atoms: _101  and  _102
REMARK   44  A    between atoms: _105  and  _107
REMARK   45  A    between atoms: _107  and  _108
REMARK   46  A    between atoms: _107  and  _110
REMARK   47  A    between atoms: _110  and  _111
REMARK   48  A    between atoms: _116  and  _118
REMARK   49  A    between atoms: _118  and  _119
REMARK   50  A    between atoms: _118  and  _121
REMARK   51  A    between atoms: _121  and  _122
REMARK   52  A    between atoms: _123  and  _125
REMARK   53  A    between atoms: _125  and  _126
REMARK   54  A    between atoms: _125  and  _128
REMARK   55  A    between atoms: _128  and  _129
REMARK   56  A    between atoms: _135  and  _137
REMARK   57  A    between atoms: _137  and  _138
REMARK   58  A    between atoms: _137  and  _140
REMARK   59  A    between atoms: _140  and  _141
REMARK   60  A    between atoms: _144  and  _146
REMARK   61  A    between atoms: _146  and  _147
REMARK   62  A    between atoms: _146  and  _149
REMARK   63  A    between atoms: _149  and  _150
REMARK   64  A    between atoms: _153  and  _155
REMARK   65  A    between atoms: _155  and  _156
REMARK   66  A    between atoms: _155  and  _158
REMARK   67  A    between atoms: _158  and  _159
REMARK   68  A    between atoms: _164  and  _165
REMARK   69  A    between atoms: _167  and  _169
REMARK   70  A    between atoms: _169  and  _170
REMARK   71  A    between atoms: _169  and  _172
REMARK   72  A    between atoms: _172  and  _173
REMARK   73  A    between atoms: _178  and  _179
REMARK   74  A    between atoms: _181  and  _183
REMARK   75  A    between atoms: _183  and  _184
REMARK   76  A    between atoms: _183  and  _186
REMARK   77  A    between atoms: _186  and  _187
REMARK   78  A    between atoms: _190  and  _192
REMARK   79  A    between atoms: _192  and  _193
REMARK   80  A    between atoms: _192  and  _195
REMARK   81  A    between atoms: _195  and  _196
REMARK   82  A    between atoms: _201  and  _202
REMARK   83  A    between atoms: _204  and  _206
REMARK   84  A    between atoms: _206  and  _207
REMARK   85  A    between atoms: _206  and  _209
REMARK   86  A    between atoms: _209  and  _210
REMARK   87  A    between atoms: _212  and  _214
REMARK   88  A    between atoms: _214  and  _215
REMARK   89  A    between atoms: _218  and  _220
REMARK   90  A    between atoms: _220  and  _221
REMARK   91  A    between atoms: _220  and  _223
REMARK   92  A    between atoms: _223  and  _224
REMARK   93  A    between atoms: _227  and  _229
REMARK   94  A    between atoms: _229  and  _230
REMARK   95  A    between atoms: _229  and  _232
REMARK   96  A    between atoms: _232  and  _233
REMARK   97  A    between atoms: _236  and  _238
REMARK   98  A    between atoms: _238  and  _239
REMARK   99  A    between atoms: _238  and  _241
REMARK  100  A    between atoms: _241  and  _242
REMARK  101  A    between atoms: _245  and  _247
REMARK  102  A    between atoms: _247  and  _248
REMARK  103  A    between atoms: _251  and  _253
REMARK  104  A    between atoms: _253  and  _254
REMARK  105  A    between atoms: _253  and  _256
REMARK  106  A    between atoms: _256  and  _257
REMARK  107  A    between atoms: _262  and  _263
REMARK  108  A    between atoms: _265  and  _267
REMARK  109  A    between atoms: _267  and  _268
REMARK  110  A    between atoms: _267  and  _270
REMARK  111  A    between atoms: _270  and  _271
REMARK  112  A    between atoms: _276  and  _278
REMARK  113  A    between atoms: _278  and  _279
REMARK  114  A    between atoms: _278  and  _281
REMARK  115  A    between atoms: _281  and  _282
REMARK  116  A    between atoms: _285  and  _287
REMARK  117  A    between atoms: _287  and  _288
REMARK  118  A    between atoms: _287  and  _290
REMARK  119  A    between atoms: _290  and  _291
REMARK  120  A    between atoms: _294  and  _296
REMARK  121  A    between atoms: _296  and  _297
REMARK  122  A    between atoms: _296  and  _299
REMARK  123  A    between atoms: _299  and  _300
REMARK  124  A    between atoms: _306  and  _308
REMARK  125  A    between atoms: _308  and  _309
REMARK  126  A    between atoms: _311  and  _313
REMARK  127  A    between atoms: _313  and  _314
REMARK  128  A    between atoms: _313  and  _316
REMARK  129  A    between atoms: _316  and  _317
REMARK  130  A    between atoms: _317  and  _318
REMARK  131  A    between atoms: _318  and  _319
REMARK  132  A    between atoms: _319  and  _320
REMARK  133  A    between atoms: _324  and  _326
REMARK  134  A    between atoms: _326  and  _327
REMARK  135  A    between atoms: _326  and  _329
REMARK  136  A    between atoms: _329  and  _330
REMARK  137  A    between atoms: _332  and  _334
REMARK  138  A    between atoms: _334  and  _335
REMARK  139  A    between atoms: _334  and  _337
REMARK  140  A    between atoms: _337  and  _338
REMARK  141  A    between atoms: _343  and  _344
REMARK  142  A    between atoms: _346  and  _348
REMARK  143  A    between atoms: _348  and  _349
REMARK  144  A    between atoms: _348  and  _351
REMARK  145  A    between atoms: _354  and  _356
REMARK  146  A    between atoms: _356  and  _357
REMARK  147  A    between atoms: _356  and  _359
REMARK  148  A    between atoms: _359  and  _360
REMARK  149  A    between atoms: _365  and  _366
REMARK  150  A    between atoms: _368  and  _370
REMARK  151  A    between atoms: _370  and  _371
REMARK  152  A    between atoms: _370  and  _373
REMARK  153  A    between atoms: _373  and  _374
REMARK  154  A    between atoms: _379  and  _380
REMARK  155  A    between atoms: _382  and  _384
REMARK  156  A    between atoms: _384  and  _385
REMARK  157  A    between atoms: _384  and  _387
REMARK  158  A    between atoms: _387  and  _388
REMARK  159  A    between atoms: _388  and  _389
REMARK  160  A    between atoms: _392  and  _394
REMARK  161  A    between atoms: _394  and  _395
REMARK  162  A    between atoms: _398  and  _400
REMARK  163  A    between atoms: _400  and  _401
REMARK  164  A    between atoms: _404  and  _406
REMARK  165  A    between atoms: _406  and  _407
REMARK  166  A    between atoms: _406  and  _409
REMARK  167  A    between atoms: _409  and  _410
REMARK  168  A    between atoms: _413  and  _415
REMARK  169  A    between atoms: _415  and  _416
REMARK  170  A    between atoms: _415  and  _418
REMARK  171  A    between atoms: _418  and  _419
REMARK  172  A    between atoms: _422  and  _424
REMARK  173  A    between atoms: _424  and  _425
REMARK  174  A    between atoms: _424  and  _427
REMARK  175  A    between atoms: _427  and  _428
REMARK  176  A    between atoms: _430  and  _432
REMARK  177  A    between atoms: _432  and  _433
REMARK  178  A    between atoms: _432  and  _435
REMARK  179  A    between atoms: _435  and  _436
REMARK  180  A    between atoms: _436  and  _546
REMARK  181  A    between atoms: _437  and  _439
REMARK  182  A    between atoms: _439  and  _440
REMARK  183  A    between atoms: _439  and  _442
REMARK  184  A    between atoms: _442  and  _443
REMARK  185  A    between atoms: _443  and  _444
REMARK  186  A    between atoms: _449  and  _451
REMARK  187  A    between atoms: _451  and  _452
REMARK  188  A    between atoms: _454  and  _456
REMARK  189  A    between atoms: _456  and  _457
REMARK  190  A    between atoms: _456  and  _459
REMARK  191  A    between atoms: _459  and  _460
REMARK  192  A    between atoms: _463  and  _465
REMARK  193  A    between atoms: _465  and  _466
REMARK  194  A    between atoms: _465  and  _468
REMARK  195  A    between atoms: _468  and  _469
REMARK  196  A    between atoms: _471  and  _473
REMARK  197  A    between atoms: _473  and  _474
REMARK  198  A    between atoms: _476  and  _478
REMARK  199  A    between atoms: _478  and  _479
REMARK  200  A    between atoms: _481  and  _483
REMARK  201  A    between atoms: _483  and  _484
REMARK  202  A    between atoms: _483  and  _486
REMARK  203  A    between atoms: _489  and  _491
REMARK  204  A    between atoms: _491  and  _492
REMARK  205  A    between atoms: _491  and  _494
REMARK  206  A    between atoms: _494  and  _495
REMARK  207  A    between atoms: _497  and  _499
REMARK  208  A    between atoms: _499  and  _500
REMARK  209  A    between atoms: _499  and  _502
REMARK  210  A    between atoms: _502  and  _503
REMARK  211  A    between atoms: _513  and  _515
REMARK  212  A    between atoms: _515  and  _516
REMARK  213  A    between atoms: _518  and  _520
REMARK  214  A    between atoms: _520  and  _521
REMARK  215  A    between atoms: _520  and  _523
REMARK  216  A    between atoms: _523  and  _524
REMARK  217  A    between atoms: _524  and  _525
REMARK  218  A    between atoms: _525  and  _526
REMARK  219  A    between atoms: _535  and  _537
REMARK  220  A    between atoms: _537  and  _538
REMARK  221  A    between atoms: _540  and  _542
REMARK  222  A    between atoms: _542  and  _543
REMARK  223  A    between atoms: _542  and  _545
REMARK  224  A    between atoms: _547  and  _549
REMARK  225  A    between atoms: _549  and  _550
REMARK  226  A    between atoms: _553  and  _555
REMARK  227  A    between atoms: _555  and  _556
REMARK  228  A    between atoms: _555  and  _558
REMARK  229  A    between atoms: _558  and  _559
REMARK  230  A    between atoms: _562  and  _564
REMARK  231  A    between atoms: _564  and  _565
REMARK  232  A    between atoms: _564  and  _567
REMARK  233  A    between atoms: _567  and  _568
REMARK  234  A    between atoms: _568  and  _569
REMARK  235  A    between atoms: _569  and  _570
REMARK  236  A    between atoms: _570  and  _571
REMARK  237  A    between atoms: _576  and  _577
REMARK  238  A    between atoms: _582  and  _584
REMARK  239  A    between atoms: _584  and  _585
REMARK  240  A    between atoms: _587  and  _589
REMARK  241  A    between atoms: _589  and  _590
REMARK  242  A    between atoms: _589  and  _592
REMARK  243  A    between atoms: _595  and  _597
REMARK  244  A    between atoms: _597  and  _598
REMARK  245  A    between atoms: _597  and  _600
REMARK  246  A    between atoms: _600  and  _601
REMARK  247  A    between atoms: _606  and  _607
REMARK                            x       y       z     vdW  Elec       q    Type
REMARK                         _______ _______ _______ _____ _____    ______ ____
ROOT
ATOM      1  O   HOH     1      -1.231 -27.629 -20.903  0.00  0.00    +0.000 OA
ENDROOT
TORSDOF 0
REMARK  Name = ../refined-set-2016/4zhl/4zhl_pocket.pdb
REMARK  247 active torsions:
REMARK  status: ('A' for Active; 'I' for Inactive)
REMARK    1  A    between atoms: _1  and  _5
REMARK    2  A    between atoms: _5  and  _6
REMARK    3  A    between atoms: _5  and  _8
REMARK    4  A    between atoms: _8  and  _9
REMARK    5  A    between atoms: _12  and  _14
REMARK    6  A    between atoms: _14  and  _15
REMARK    7  A    between atoms: _14  and  _17
REMARK    8  A    between atoms: _17  and  _18
REMARK    9  A    between atoms: _21  and  _23
REMARK   10  A    between atoms: _23  and  _24
REMARK   11  A    between atoms: _23  and  _26
REMARK   12  A    between atoms: _26  and  _27
REMARK   13  A    between atoms: _30  and  _32
REMARK   14  A    between atoms: _32  and  _33
REMARK   15  A    between atoms: _32  and  _35
REMARK   16  A    between atoms: _35  and  _36
REMARK   17  A    between atoms: _36  and  _37
REMARK   18  A    between atoms: _37  and  _38
REMARK   19  A    between atoms: _47  and  _49
REMARK   20  A    between atoms: _49  and  _50
REMARK   21  A    between atoms: _49  and  _52
REMARK   22  A    between atoms: _52  and  _53
REMARK   23  A    between atoms: _56  and  _58
REMARK   24  A    between atoms: _58  and  _59
REMARK   25  A    between atoms: _58  and  _61
REMARK   26  A    between atoms: _61  and  _62
REMARK   27  A    between atoms: _67  and  _68
REMARK   28  A    between atoms: _70  and  _72
REMARK   29  A    between atoms: _72  and  _73
REMARK   30  A    between atoms: _72  and  _75
REMARK   31  A    between atoms: _78  and  _80
REMARK   32  A    between atoms: _80  and  _81
REMARK   33  A    between atoms: _80  and  _83
REMARK   34  A    between atoms: _83  and  _84
REMARK   35  A    between atoms: _84  and  _122
REMARK   36  A    between atoms: _85  and  _87
REMARK   37  A    between atoms: _87  and  _88
REMARK   38  A    between atoms: _90  and  _92
REMARK   39  A    between atoms: _92  and  _93
REMARK   40  A    between atoms: _96  and  _98
REMARK   41  A    between atoms: _98  and  _99
REMARK   42  A    between atoms: _98  and  _101
REMARK   43  A    between atoms: _101  and  _102
REMARK   44  A    between atoms: _105  and  _107
REMARK   45  A    between atoms: _107  and  _108
REMARK   46  A    between atoms: _107  and  _110
REMARK   47  A    between atoms: _110  and  _111
REMARK   48  A    between atoms: _116  and  _118
REMARK   49  A    between atoms: _118  and  _119
REMARK   50  A    between atoms: _118  and  _121
REMARK   51  A    between atoms: _121  and  _122
REMARK   52  A    between atoms: _123  and  _125
REMARK   53  A    between atoms: _125  and  _126
REMARK   54  A    between atoms: _125  and  _128
REMARK   55  A    between atoms: _128  and  _129
REMARK   56  A    between atoms: _135  and  _137
REMARK   57  A    between atoms: _137  and  _138
REMARK   58  A    between atoms: _137  and  _140
REMARK   59  A    between atoms: _140  and  _141
REMARK   60  A    between atoms: _144  and  _146
REMARK   61  A    between atoms: _146  and  _147
REMARK   62  A    between atoms: _146  and  _149
REMARK   63  A    between atoms: _149  and  _150
REMARK   64  A    between atoms: _153  and  _155
REMARK   65  A    between atoms: _155  and  _156
REMARK   66  A    between atoms: _155  and  _158
REMARK   67  A    between atoms: _158  and  _159
REMARK   68  A    between atoms: _164  and  _165
REMARK   69  A    between atoms: _167  and  _169
REMARK   70  A    between atoms: _169  and  _170
REMARK   71  A    between atoms: _169  and  _172
REMARK   72  A    between atoms: _172  and  _173
REMARK   73  A    between atoms: _178  and  _179
REMARK   74  A    between atoms: _181  and  _183
REMARK   75  A    between atoms: _183  and  _184
REMARK   76  A    between atoms: _183  and  _186
REMARK   77  A    between atoms: _186  and  _187
REMARK   78  A    between atoms: _190  and  _192
REMARK   79  A    between atoms: _192  and  _193
REMARK   80  A    between atoms: _192  and  _195
REMARK   81  A    between atoms: _195  and  _196
REMARK   82  A    between atoms: _201  and  _202
REMARK   83  A    between atoms: _204  and  _206
REMARK   84  A    between atoms: _206  and  _207
REMARK   85  A    between atoms: _206  and  _209
REMARK   86  A    between atoms: _209  and  _210
REMARK   87  A    between atoms: _212  and  _214
REMARK   88  A    between atoms: _214  and  _215
REMARK   89  A    between atoms: _218  and  _220
REMARK   90  A    between atoms: _220  and  _221
REMARK   91  A    between atoms: _220  and  _223
REMARK   92  A    between atoms: _223  and  _224
REMARK   93  A    between atoms: _227  and  _229
REMARK   94  A    between atoms: _229  and  _230
REMARK   95  A    between atoms: _229  and  _232
REMARK   96  A    between atoms: _232  and  _233
REMARK   97  A    between atoms: _236  and  _238
REMARK   98  A    between atoms: _238  and  _239
REMARK   99  A    between atoms: _238  and  _241
REMARK  100  A    between atoms: _241  and  _242
REMARK  101  A    between atoms: _245  and  _247
REMARK  102  A    between atoms: _247  and  _248
REMARK  103  A    between atoms: _251  and  _253
REMARK  104  A    between atoms: _253  and  _254
REMARK  105  A    between atoms: _253  and  _256
REMARK  106  A    between atoms: _256  and  _257
REMARK  107  A    between atoms: _262  and  _263
REMARK  108  A    between atoms: _265  and  _267
REMARK  109  A    between atoms: _267  and  _268
REMARK  110  A    between atoms: _267  and  _270
REMARK  111  A    between atoms: _270  and  _271
REMARK  112  A    between atoms: _276  and  _278
REMARK  113  A    between atoms: _278  and  _279
REMARK  114  A    between atoms: _278  and  _281
REMARK  115  A    between atoms: _281  and  _282
REMARK  116  A    between atoms: _285  and  _287
REMARK  117  A    between atoms: _287  and  _288
REMARK  118  A    between atoms: _287  and  _290
REMARK  119  A    between atoms: _290  and  _291
REMARK  120  A    between atoms: _294  and  _296
REMARK  121  A    between atoms: _296  and  _297
REMARK  122  A    between atoms: _296  and  _299
REMARK  123  A    between atoms: _299  and  _300
REMARK  124  A    between atoms: _306  and  _308
REMARK  125  A    between atoms: _308  and  _309
REMARK  126  A    between atoms: _311  and  _313
REMARK  127  A    between atoms: _313  and  _314
REMARK  128  A    between atoms: _313  and  _316
REMARK  129  A    between atoms: _316  and  _317
REMARK  130  A    between atoms: _317  and  _318
REMARK  131  A    between atoms: _318  and  _319
REMARK  132  A    between atoms: _319  and  _320
REMARK  133  A    between atoms: _324  and  _326
REMARK  134  A    between atoms: _326  and  _327
REMARK  135  A    between atoms: _326  and  _329
REMARK  136  A    between atoms: _329  and  _330
REMARK  137  A    between atoms: _332  and  _334
REMARK  138  A    between atoms: _334  and  _335
REMARK  139  A    between atoms: _334  and  _337
REMARK  140  A    between atoms: _337  and  _338
REMARK  141  A    between atoms: _343  and  _344
REMARK  142  A    between atoms: _346  and  _348
REMARK  143  A    between atoms: _348  and  _349
REMARK  144  A    between atoms: _348  and  _351
REMARK  145  A    between atoms: _354  and  _356
REMARK  146  A    between atoms: _356  and  _357
REMARK  147  A    between atoms: _356  and  _359
REMARK  148  A    between atoms: _359  and  _360
REMARK  149  A    between atoms: _365  and  _366
REMARK  150  A    between atoms: _368  and  _370
REMARK  151  A    between atoms: _370  and  _371
REMARK  152  A    between atoms: _370  and  _373
REMARK  153  A    between atoms: _373  and  _374
REMARK  154  A    between atoms: _379  and  _380
REMARK  155  A    between atoms: _382  and  _384
REMARK  156  A    between atoms: _384  and  _385
REMARK  157  A    between atoms: _384  and  _387
REMARK  158  A    between atoms: _387  and  _388
REMARK  159  A    between atoms: _388  and  _389
REMARK  160  A    between atoms: _392  and  _394
REMARK  161  A    between atoms: _394  and  _395
REMARK  162  A    between atoms: _398  and  _400
REMARK  163  A    between atoms: _400  and  _401
REMARK  164  A    between atoms: _404  and  _406
REMARK  165  A    between atoms: _406  and  _407
REMARK  166  A    between atoms: _406  and  _409
REMARK  167  A    between atoms: _409  and  _410
REMARK  168  A    between atoms: _413  and  _415
REMARK  169  A    between atoms: _415  and  _416
REMARK  170  A    between atoms: _415  and  _418
REMARK  171  A    between atoms: _418  and  _419
REMARK  172  A    between atoms: _422  and  _424
REMARK  173  A    between atoms: _424  and  _425
REMARK  174  A    between atoms: _424  and  _427
REMARK  175  A    between atoms: _427  and  _428
REMARK  176  A    between atoms: _430  and  _432
REMARK  177  A    between atoms: _432  and  _433
REMARK  178  A    between atoms: _432  and  _435
REMARK  179  A    between atoms: _435  and  _436
REMARK  180  A    between atoms: _436  and  _546
REMARK  181  A    between atoms: _437  and  _439
REMARK  182  A    between atoms: _439  and  _440
REMARK  183  A    between atoms: _439  and  _442
REMARK  184  A    between atoms: _442  and  _443
REMARK  185  A    between atoms: _443  and  _444
REMARK  186  A    between atoms: _449  and  _451
REMARK  187  A    between atoms: _451  and  _452
REMARK  188  A    between atoms: _454  and  _456
REMARK  189  A    between atoms: _456  and  _457
REMARK  190  A    between atoms: _456  and  _459
REMARK  191  A    between atoms: _459  and  _460
REMARK  192  A    between atoms: _463  and  _465
REMARK  193  A    between atoms: _465  and  _466
REMARK  194  A    between atoms: _465  and  _468
REMARK  195  A    between atoms: _468  and  _469
REMARK  196  A    between atoms: _471  and  _473
REMARK  197  A    between atoms: _473  and  _474
REMARK  198  A    between atoms: _476  and  _478
REMARK  199  A    between atoms: _478  and  _479
REMARK  200  A    between atoms: _481  and  _483
REMARK  201  A    between atoms: _483  and  _484
REMARK  202  A    between atoms: _483  and  _486
REMARK  203  A    between atoms: _489  and  _491
REMARK  204  A    between atoms: _491  and  _492
REMARK  205  A    between atoms: _491  and  _494
REMARK  206  A    between atoms: _494  and  _495
REMARK  207  A    between atoms: _497  and  _499
REMARK  208  A    between atoms: _499  and  _500
REMARK  209  A    between atoms: _499  and  _502
REMARK  210  A    between atoms: _502  and  _503
REMARK  211  A    between atoms: _513  and  _515
REMARK  212  A    between atoms: _515  and  _516
REMARK  213  A    between atoms: _518  and  _520
REMARK  214  A    between atoms: _520  and  _521
REMARK  215  A    between atoms: _520  and  _523
REMARK  216  A    between atoms: _523  and  _524
REMARK  217  A    between atoms: _524  and  _525
REMARK  218  A    between atoms: _525  and  _526
REMARK  219  A    between atoms: _535  and  _537
REMARK  220  A    between atoms: _537  and  _538
REMARK  221  A    between atoms: _540  and  _542
REMARK  222  A    between atoms: _542  and  _543
REMARK  223  A    between atoms: _542  and  _545
REMARK  224  A    between atoms: _547  and  _549
REMARK  225  A    between atoms: _549  and  _550
REMARK  226  A    between atoms: _553  and  _555
REMARK  227  A    between atoms: _555  and  _556
REMARK  228  A    between atoms: _555  and  _558
REMARK  229  A    between atoms: _558  and  _559
REMARK  230  A    between atoms: _562  and  _564
REMARK  231  A    between atoms: _564  and  _565
REMARK  232  A    between atoms: _564  and  _567
REMARK  233  A    between atoms: _567  and  _568
REMARK  234  A    between atoms: _568  and  _569
REMARK  235  A    between atoms: _569  and  _570
REMARK  236  A    between atoms: _570  and  _571
REMARK  237  A    between atoms: _576  and  _577
REMARK  238  A    between atoms: _582  and  _584
REMARK  239  A    between atoms: _584  and  _585
REMARK  240  A    between atoms: _587  and  _589
REMARK  241  A    between atoms: _589  and  _590
REMARK  242  A    between atoms: _589  and  _592
REMARK  243  A    between atoms: _595  and  _597
REMARK  244  A    between atoms: _597  and  _598
REMARK  245  A    between atoms: _597  and  _600
REMARK  246  A    between atoms: _600  and  _601
REMARK  247  A    between atoms: _606  and  _607
REMARK                            x       y       z     vdW  Elec       q    Type
REMARK                         _______ _______ _______ _____ _____    ______ ____
ROOT
ATOM      1  O   HOH     1       7.298 -24.742 -21.763  0.00  0.00    +0.000 OA
ENDROOT
TORSDOF 0
REMARK  Name = ../refined-set-2016/4zhl/4zhl_pocket.pdb
REMARK  247 active torsions:
REMARK  status: ('A' for Active; 'I' for Inactive)
REMARK    1  A    between atoms: _1  and  _5
REMARK    2  A    between atoms: _5  and  _6
REMARK    3  A    between atoms: _5  and  _8
REMARK    4  A    between atoms: _8  and  _9
REMARK    5  A    between atoms: _12  and  _14
REMARK    6  A    between atoms: _14  and  _15
REMARK    7  A    between atoms: _14  and  _17
REMARK    8  A    between atoms: _17  and  _18
REMARK    9  A    between atoms: _21  and  _23
REMARK   10  A    between atoms: _23  and  _24
REMARK   11  A    between atoms: _23  and  _26
REMARK   12  A    between atoms: _26  and  _27
REMARK   13  A    between atoms: _30  and  _32
REMARK   14  A    between atoms: _32  and  _33
REMARK   15  A    between atoms: _32  and  _35
REMARK   16  A    between atoms: _35  and  _36
REMARK   17  A    between atoms: _36  and  _37
REMARK   18  A    between atoms: _37  and  _38
REMARK   19  A    between atoms: _47  and  _49
REMARK   20  A    between atoms: _49  and  _50
REMARK   21  A    between atoms: _49  and  _52
REMARK   22  A    between atoms: _52  and  _53
REMARK   23  A    between atoms: _56  and  _58
REMARK   24  A    between atoms: _58  and  _59
REMARK   25  A    between atoms: _58  and  _61
REMARK   26  A    between atoms: _61  and  _62
REMARK   27  A    between atoms: _67  and  _68
REMARK   28  A    between atoms: _70  and  _72
REMARK   29  A    between atoms: _72  and  _73
REMARK   30  A    between atoms: _72  and  _75
REMARK   31  A    between atoms: _78  and  _80
REMARK   32  A    between atoms: _80  and  _81
REMARK   33  A    between atoms: _80  and  _83
REMARK   34  A    between atoms: _83  and  _84
REMARK   35  A    between atoms: _84  and  _122
REMARK   36  A    between atoms: _85  and  _87
REMARK   37  A    between atoms: _87  and  _88
REMARK   38  A    between atoms: _90  and  _92
REMARK   39  A    between atoms: _92  and  _93
REMARK   40  A    between atoms: _96  and  _98
REMARK   41  A    between atoms: _98  and  _99
REMARK   42  A    between atoms: _98  and  _101
REMARK   43  A    between atoms: _101  and  _102
REMARK   44  A    between atoms: _105  and  _107
REMARK   45  A    between atoms: _107  and  _108
REMARK   46  A    between atoms: _107  and  _110
REMARK   47  A    between atoms: _110  and  _111
REMARK   48  A    between atoms: _116  and  _118
REMARK   49  A    between atoms: _118  and  _119
REMARK   50  A    between atoms: _118  and  _121
REMARK   51  A    between atoms: _121  and  _122
REMARK   52  A    between atoms: _123  and  _125
REMARK   53  A    between atoms: _125  and  _126
REMARK   54  A    between atoms: _125  and  _128
REMARK   55  A    between atoms: _128  and  _129
REMARK   56  A    between atoms: _135  and  _137
REMARK   57  A    between atoms: _137  and  _138
REMARK   58  A    between atoms: _137  and  _140
REMARK   59  A    between atoms: _140  and  _141
REMARK   60  A    between atoms: _144  and  _146
REMARK   61  A    between atoms: _146  and  _147
REMARK   62  A    between atoms: _146  and  _149
REMARK   63  A    between atoms: _149  and  _150
REMARK   64  A    between atoms: _153  and  _155
REMARK   65  A    between atoms: _155  and  _156
REMARK   66  A    between atoms: _155  and  _158
REMARK   67  A    between atoms: _158  and  _159
REMARK   68  A    between atoms: _164  and  _165
REMARK   69  A    between atoms: _167  and  _169
REMARK   70  A    between atoms: _169  and  _170
REMARK   71  A    between atoms: _169  and  _172
REMARK   72  A    between atoms: _172  and  _173
REMARK   73  A    between atoms: _178  and  _179
REMARK   74  A    between atoms: _181  and  _183
REMARK   75  A    between atoms: _183  and  _184
REMARK   76  A    between atoms: _183  and  _186
REMARK   77  A    between atoms: _186  and  _187
REMARK   78  A    between atoms: _190  and  _192
REMARK   79  A    between atoms: _192  and  _193
REMARK   80  A    between atoms: _192  and  _195
REMARK   81  A    between atoms: _195  and  _196
REMARK   82  A    between atoms: _201  and  _202
REMARK   83  A    between atoms: _204  and  _206
REMARK   84  A    between atoms: _206  and  _207
REMARK   85  A    between atoms: _206  and  _209
REMARK   86  A    between atoms: _209  and  _210
REMARK   87  A    between atoms: _212  and  _214
REMARK   88  A    between atoms: _214  and  _215
REMARK   89  A    between atoms: _218  and  _220
REMARK   90  A    between atoms: _220  and  _221
REMARK   91  A    between atoms: _220  and  _223
REMARK   92  A    between atoms: _223  and  _224
REMARK   93  A    between atoms: _227  and  _229
REMARK   94  A    between atoms: _229  and  _230
REMARK   95  A    between atoms: _229  and  _232
REMARK   96  A    between atoms: _232  and  _233
REMARK   97  A    between atoms: _236  and  _238
REMARK   98  A    between atoms: _238  and  _239
REMARK   99  A    between atoms: _238  and  _241
REMARK  100  A    between atoms: _241  and  _242
REMARK  101  A    between atoms: _245  and  _247
REMARK  102  A    between atoms: _247  and  _248
REMARK  103  A    between atoms: _251  and  _253
REMARK  104  A    between atoms: _253  and  _254
REMARK  105  A    between atoms: _253  and  _256
REMARK  106  A    between atoms: _256  and  _257
REMARK  107  A    between atoms: _262  and  _263
REMARK  108  A    between atoms: _265  and  _267
REMARK  109  A    between atoms: _267  and  _268
REMARK  110  A    between atoms: _267  and  _270
REMARK  111  A    between atoms: _270  and  _271
REMARK  112  A    between atoms: _276  and  _278
REMARK  113  A    between atoms: _278  and  _279
REMARK  114  A    between atoms: _278  and  _281
REMARK  115  A    between atoms: _281  and  _282
REMARK  116  A    between atoms: _285  and  _287
REMARK  117  A    between atoms: _287  and  _288
REMARK  118  A    between atoms: _287  and  _290
REMARK  119  A    between atoms: _290  and  _291
REMARK  120  A    between atoms: _294  and  _296
REMARK  121  A    between atoms: _296  and  _297
REMARK  122  A    between atoms: _296  and  _299
REMARK  123  A    between atoms: _299  and  _300
REMARK  124  A    between atoms: _306  and  _308
REMARK  125  A    between atoms: _308  and  _309
REMARK  126  A    between atoms: _311  and  _313
REMARK  127  A    between atoms: _313  and  _314
REMARK  128  A    between atoms: _313  and  _316
REMARK  129  A    between atoms: _316  and  _317
REMARK  130  A    between atoms: _317  and  _318
REMARK  131  A    between atoms: _318  and  _319
REMARK  132  A    between atoms: _319  and  _320
REMARK  133  A    between atoms: _324  and  _326
REMARK  134  A    between atoms: _326  and  _327
REMARK  135  A    between atoms: _326  and  _329
REMARK  136  A    between atoms: _329  and  _330
REMARK  137  A    between atoms: _332  and  _334
REMARK  138  A    between atoms: _334  and  _335
REMARK  139  A    between atoms: _334  and  _337
REMARK  140  A    between atoms: _337  and  _338
REMARK  141  A    between atoms: _343  and  _344
REMARK  142  A    between atoms: _346  and  _348
REMARK  143  A    between atoms: _348  and  _349
REMARK  144  A    between atoms: _348  and  _351
REMARK  145  A    between atoms: _354  and  _356
REMARK  146  A    between atoms: _356  and  _357
REMARK  147  A    between atoms: _356  and  _359
REMARK  148  A    between atoms: _359  and  _360
REMARK  149  A    between atoms: _365  and  _366
REMARK  150  A    between atoms: _368  and  _370
REMARK  151  A    between atoms: _370  and  _371
REMARK  152  A    between atoms: _370  and  _373
REMARK  153  A    between atoms: _373  and  _374
REMARK  154  A    between atoms: _379  and  _380
REMARK  155  A    between atoms: _382  and  _384
REMARK  156  A    between atoms: _384  and  _385
REMARK  157  A    between atoms: _384  and  _387
REMARK  158  A    between atoms: _387  and  _388
REMARK  159  A    between atoms: _388  and  _389
REMARK  160  A    between atoms: _392  and  _394
REMARK  161  A    between atoms: _394  and  _395
REMARK  162  A    between atoms: _398  and  _400
REMARK  163  A    between atoms: _400  and  _401
REMARK  164  A    between atoms: _404  and  _406
REMARK  165  A    between atoms: _406  and  _407
REMARK  166  A    between atoms: _406  and  _409
REMARK  167  A    between atoms: _409  and  _410
REMARK  168  A    between atoms: _413  and  _415
REMARK  169  A    between atoms: _415  and  _416
REMARK  170  A    between atoms: _415  and  _418
REMARK  171  A    between atoms: _418  and  _419
REMARK  172  A    between atoms: _422  and  _424
REMARK  173  A    between atoms: _424  and  _425
REMARK  174  A    between atoms: _424  and  _427
REMARK  175  A    between atoms: _427  and  _428
REMARK  176  A    between atoms: _430  and  _432
REMARK  177  A    between atoms: _432  and  _433
REMARK  178  A    between atoms: _432  and  _435
REMARK  179  A    between atoms: _435  and  _436
REMARK  180  A    between atoms: _436  and  _546
REMARK  181  A    between atoms: _437  and  _439
REMARK  182  A    between atoms: _439  and  _440
REMARK  183  A    between atoms: _439  and  _442
REMARK  184  A    between atoms: _442  and  _443
REMARK  185  A    between atoms: _443  and  _444
REMARK  186  A    between atoms: _449  and  _451
REMARK  187  A    between atoms: _451  and  _452
REMARK  188  A    between atoms: _454  and  _456
REMARK  189  A    between atoms: _456  and  _457
REMARK  190  A    between atoms: _456  and  _459
REMARK  191  A    between atoms: _459  and  _460
REMARK  192  A    between atoms: _463  and  _465
REMARK  193  A    between atoms: _465  and  _466
REMARK  194  A    between atoms: _465  and  _468
REMARK  195  A    between atoms: _468  and  _469
REMARK  196  A    between atoms: _471  and  _473
REMARK  197  A    between atoms: _473  and  _474
REMARK  198  A    between atoms: _476  and  _478
REMARK  199  A    between atoms: _478  and  _479
REMARK  200  A    between atoms: _481  and  _483
REMARK  201  A    between atoms: _483  and  _484
REMARK  202  A    between atoms: _483  and  _486
REMARK  203  A    between atoms: _489  and  _491
REMARK  204  A    between atoms: _491  and  _492
REMARK  205  A    between atoms: _491  and  _494
REMARK  206  A    between atoms: _494  and  _495
REMARK  207  A    between atoms: _497  and  _499
REMARK  208  A    between atoms: _499  and  _500
REMARK  209  A    between atoms: _499  and  _502
REMARK  210  A    between atoms: _502  and  _503
REMARK  211  A    between atoms: _513  and  _515
REMARK  212  A    between atoms: _515  and  _516
REMARK  213  A    between atoms: _518  and  _520
REMARK  214  A    between atoms: _520  and  _521
REMARK  215  A    between atoms: _520  and  _523
REMARK  216  A    between atoms: _523  and  _524
REMARK  217  A    between atoms: _524  and  _525
REMARK  218  A    between atoms: _525  and  _526
REMARK  219  A    between atoms: _535  and  _537
REMARK  220  A    between atoms: _537  and  _538
REMARK  221  A    between atoms: _540  and  _542
REMARK  222  A    between atoms: _542  and  _543
REMARK  223  A    between atoms: _542  and  _545
REMARK  224  A    between atoms: _547  and  _549
REMARK  225  A    between atoms: _549  and  _550
REMARK  226  A    between atoms: _553  and  _555
REMARK  227  A    between atoms: _555  and  _556
REMARK  228  A    between atoms: _555  and  _558
REMARK  229  A    between atoms: _558  and  _559
REMARK  230  A    between atoms: _562  and  _564
REMARK  231  A    between atoms: _564  and  _565
REMARK  232  A    between atoms: _564  and  _567
REMARK  233  A    between atoms: _567  and  _568
REMARK  234  A    between atoms: _568  and  _569
REMARK  235  A    between atoms: _569  and  _570
REMARK  236  A    between atoms: _570  and  _571
REMARK  237  A    between atoms: _576  and  _577
REMARK  238  A    between atoms: _582  and  _584
REMARK  239  A    between atoms: _584  and  _585
REMARK  240  A    between atoms: _587  and  _589
REMARK  241  A    between atoms: _589  and  _590
REMARK  242  A    between atoms: _589  and  _592
REMARK  243  A    between atoms: _595  and  _597
REMARK  244  A    between atoms: _597  and  _598
REMARK  245  A    between atoms: _597  and  _600
REMARK  246  A    between atoms: _600  and  _601
REMARK  247  A    between atoms: _606  and  _607
REMARK                            x       y       z     vdW  Elec       q    Type
REMARK                         _______ _______ _______ _____ _____    ______ ____
ROOT
ATOM      1  O   HOH     1      -2.071 -20.104 -20.584  0.00  0.00    +0.000 OA
ENDROOT
TORSDOF 0
REMARK  Name = ../refined-set-2016/4zhl/4zhl_pocket.pdb
REMARK  247 active torsions:
REMARK  status: ('A' for Active; 'I' for Inactive)
REMARK    1  A    between atoms: _1  and  _5
REMARK    2  A    between atoms: _5  and  _6
REMARK    3  A    between atoms: _5  and  _8
REMARK    4  A    between atoms: _8  and  _9
REMARK    5  A    between atoms: _12  and  _14
REMARK    6  A    between atoms: _14  and  _15
REMARK    7  A    between atoms: _14  and  _17
REMARK    8  A    between atoms: _17  and  _18
REMARK    9  A    between atoms: _21  and  _23
REMARK   10  A    between atoms: _23  and  _24
REMARK   11  A    between atoms: _23  and  _26
REMARK   12  A    between atoms: _26  and  _27
REMARK   13  A    between atoms: _30  and  _32
REMARK   14  A    between atoms: _32  and  _33
REMARK   15  A    between atoms: _32  and  _35
REMARK   16  A    between atoms: _35  and  _36
REMARK   17  A    between atoms: _36  and  _37
REMARK   18  A    between atoms: _37  and  _38
REMARK   19  A    between atoms: _47  and  _49
REMARK   20  A    between atoms: _49  and  _50
REMARK   21  A    between atoms: _49  and  _52
REMARK   22  A    between atoms: _52  and  _53
REMARK   23  A    between atoms: _56  and  _58
REMARK   24  A    between atoms: _58  and  _59
REMARK   25  A    between atoms: _58  and  _61
REMARK   26  A    between atoms: _61  and  _62
REMARK   27  A    between atoms: _67  and  _68
REMARK   28  A    between atoms: _70  and  _72
REMARK   29  A    between atoms: _72  and  _73
REMARK   30  A    between atoms: _72  and  _75
REMARK   31  A    between atoms: _78  and  _80
REMARK   32  A    between atoms: _80  and  _81
REMARK   33  A    between atoms: _80  and  _83
REMARK   34  A    between atoms: _83  and  _84
REMARK   35  A    between atoms: _84  and  _122
REMARK   36  A    between atoms: _85  and  _87
REMARK   37  A    between atoms: _87  and  _88
REMARK   38  A    between atoms: _90  and  _92
REMARK   39  A    between atoms: _92  and  _93
REMARK   40  A    between atoms: _96  and  _98
REMARK   41  A    between atoms: _98  and  _99
REMARK   42  A    between atoms: _98  and  _101
REMARK   43  A    between atoms: _101  and  _102
REMARK   44  A    between atoms: _105  and  _107
REMARK   45  A    between atoms: _107  and  _108
REMARK   46  A    between atoms: _107  and  _110
REMARK   47  A    between atoms: _110  and  _111
REMARK   48  A    between atoms: _116  and  _118
REMARK   49  A    between atoms: _118  and  _119
REMARK   50  A    between atoms: _118  and  _121
REMARK   51  A    between atoms: _121  and  _122
REMARK   52  A    between atoms: _123  and  _125
REMARK   53  A    between atoms: _125  and  _126
REMARK   54  A    between atoms: _125  and  _128
REMARK   55  A    between atoms: _128  and  _129
REMARK   56  A    between atoms: _135  and  _137
REMARK   57  A    between atoms: _137  and  _138
REMARK   58  A    between atoms: _137  and  _140
REMARK   59  A    between atoms: _140  and  _141
REMARK   60  A    between atoms: _144  and  _146
REMARK   61  A    between atoms: _146  and  _147
REMARK   62  A    between atoms: _146  and  _149
REMARK   63  A    between atoms: _149  and  _150
REMARK   64  A    between atoms: _153  and  _155
REMARK   65  A    between atoms: _155  and  _156
REMARK   66  A    between atoms: _155  and  _158
REMARK   67  A    between atoms: _158  and  _159
REMARK   68  A    between atoms: _164  and  _165
REMARK   69  A    between atoms: _167  and  _169
REMARK   70  A    between atoms: _169  and  _170
REMARK   71  A    between atoms: _169  and  _172
REMARK   72  A    between atoms: _172  and  _173
REMARK   73  A    between atoms: _178  and  _179
REMARK   74  A    between atoms: _181  and  _183
REMARK   75  A    between atoms: _183  and  _184
REMARK   76  A    between atoms: _183  and  _186
REMARK   77  A    between atoms: _186  and  _187
REMARK   78  A    between atoms: _190  and  _192
REMARK   79  A    between atoms: _192  and  _193
REMARK   80  A    between atoms: _192  and  _195
REMARK   81  A    between atoms: _195  and  _196
REMARK   82  A    between atoms: _201  and  _202
REMARK   83  A    between atoms: _204  and  _206
REMARK   84  A    between atoms: _206  and  _207
REMARK   85  A    between atoms: _206  and  _209
REMARK   86  A    between atoms: _209  and  _210
REMARK   87  A    between atoms: _212  and  _214
REMARK   88  A    between atoms: _214  and  _215
REMARK   89  A    between atoms: _218  and  _220
REMARK   90  A    between atoms: _220  and  _221
REMARK   91  A    between atoms: _220  and  _223
REMARK   92  A    between atoms: _223  and  _224
REMARK   93  A    between atoms: _227  and  _229
REMARK   94  A    between atoms: _229  and  _230
REMARK   95  A    between atoms: _229  and  _232
REMARK   96  A    between atoms: _232  and  _233
REMARK   97  A    between atoms: _236  and  _238
REMARK   98  A    between atoms: _238  and  _239
REMARK   99  A    between atoms: _238  and  _241
REMARK  100  A    between atoms: _241  and  _242
REMARK  101  A    between atoms: _245  and  _247
REMARK  102  A    between atoms: _247  and  _248
REMARK  103  A    between atoms: _251  and  _253
REMARK  104  A    between atoms: _253  and  _254
REMARK  105  A    between atoms: _253  and  _256
REMARK  106  A    between atoms: _256  and  _257
REMARK  107  A    between atoms: _262  and  _263
REMARK  108  A    between atoms: _265  and  _267
REMARK  109  A    between atoms: _267  and  _268
REMARK  110  A    between atoms: _267  and  _270
REMARK  111  A    between atoms: _270  and  _271
REMARK  112  A    between atoms: _276  and  _278
REMARK  113  A    between atoms: _278  and  _279
REMARK  114  A    between atoms: _278  and  _281
REMARK  115  A    between atoms: _281  and  _282
REMARK  116  A    between atoms: _285  and  _287
REMARK  117  A    between atoms: _287  and  _288
REMARK  118  A    between atoms: _287  and  _290
REMARK  119  A    between atoms: _290  and  _291
REMARK  120  A    between atoms: _294  and  _296
REMARK  121  A    between atoms: _296  and  _297
REMARK  122  A    between atoms: _296  and  _299
REMARK  123  A    between atoms: _299  and  _300
REMARK  124  A    between atoms: _306  and  _308
REMARK  125  A    between atoms: _308  and  _309
REMARK  126  A    between atoms: _311  and  _313
REMARK  127  A    between atoms: _313  and  _314
REMARK  128  A    between atoms: _313  and  _316
REMARK  129  A    between atoms: _316  and  _317
REMARK  130  A    between atoms: _317  and  _318
REMARK  131  A    between atoms: _318  and  _319
REMARK  132  A    between atoms: _319  and  _320
REMARK  133  A    between atoms: _324  and  _326
REMARK  134  A    between atoms: _326  and  _327
REMARK  135  A    between atoms: _326  and  _329
REMARK  136  A    between atoms: _329  and  _330
REMARK  137  A    between atoms: _332  and  _334
REMARK  138  A    between atoms: _334  and  _335
REMARK  139  A    between atoms: _334  and  _337
REMARK  140  A    between atoms: _337  and  _338
REMARK  141  A    between atoms: _343  and  _344
REMARK  142  A    between atoms: _346  and  _348
REMARK  143  A    between atoms: _348  and  _349
REMARK  144  A    between atoms: _348  and  _351
REMARK  145  A    between atoms: _354  and  _356
REMARK  146  A    between atoms: _356  and  _357
REMARK  147  A    between atoms: _356  and  _359
REMARK  148  A    between atoms: _359  and  _360
REMARK  149  A    between atoms: _365  and  _366
REMARK  150  A    between atoms: _368  and  _370
REMARK  151  A    between atoms: _370  and  _371
REMARK  152  A    between atoms: _370  and  _373
REMARK  153  A    between atoms: _373  and  _374
REMARK  154  A    between atoms: _379  and  _380
REMARK  155  A    between atoms: _382  and  _384
REMARK  156  A    between atoms: _384  and  _385
REMARK  157  A    between atoms: _384  and  _387
REMARK  158  A    between atoms: _387  and  _388
REMARK  159  A    between atoms: _388  and  _389
REMARK  160  A    between atoms: _392  and  _394
REMARK  161  A    between atoms: _394  and  _395
REMARK  162  A    between atoms: _398  and  _400
REMARK  163  A    between atoms: _400  and  _401
REMARK  164  A    between atoms: _404  and  _406
REMARK  165  A    between atoms: _406  and  _407
REMARK  166  A    between atoms: _406  and  _409
REMARK  167  A    between atoms: _409  and  _410
REMARK  168  A    between atoms: _413  and  _415
REMARK  169  A    between atoms: _415  and  _416
REMARK  170  A    between atoms: _415  and  _418
REMARK  171  A    between atoms: _418  and  _419
REMARK  172  A    between atoms: _422  and  _424
REMARK  173  A    between atoms: _424  and  _425
REMARK  174  A    between atoms: _424  and  _427
REMARK  175  A    between atoms: _427  and  _428
REMARK  176  A    between atoms: _430  and  _432
REMARK  177  A    between atoms: _432  and  _433
REMARK  178  A    between atoms: _432  and  _435
REMARK  179  A    between atoms: _435  and  _436
REMARK  180  A    between atoms: _436  and  _546
REMARK  181  A    between atoms: _437  and  _439
REMARK  182  A    between atoms: _439  and  _440
REMARK  183  A    between atoms: _439  and  _442
REMARK  184  A    between atoms: _442  and  _443
REMARK  185  A    between atoms: _443  and  _444
REMARK  186  A    between atoms: _449  and  _451
REMARK  187  A    between atoms: _451  and  _452
REMARK  188  A    between atoms: _454  and  _456
REMARK  189  A    between atoms: _456  and  _457
REMARK  190  A    between atoms: _456  and  _459
REMARK  191  A    between atoms: _459  and  _460
REMARK  192  A    between atoms: _463  and  _465
REMARK  193  A    between atoms: _465  and  _466
REMARK  194  A    between atoms: _465  and  _468
REMARK  195  A    between atoms: _468  and  _469
REMARK  196  A    between atoms: _471  and  _473
REMARK  197  A    between atoms: _473  and  _474
REMARK  198  A    between atoms: _476  and  _478
REMARK  199  A    between atoms: _478  and  _479
REMARK  200  A    between atoms: _481  and  _483
REMARK  201  A    between atoms: _483  and  _484
REMARK  202  A    between atoms: _483  and  _486
REMARK  203  A    between atoms: _489  and  _491
REMARK  204  A    between atoms: _491  and  _492
REMARK  205  A    between atoms: _491  and  _494
REMARK  206  A    between atoms: _494  and  _495
REMARK  207  A    between atoms: _497  and  _499
REMARK  208  A    between atoms: _499  and  _500
REMARK  209  A    between atoms: _499  and  _502
REMARK  210  A    between atoms: _502  and  _503
REMARK  211  A    between atoms: _513  and  _515
REMARK  212  A    between atoms: _515  and  _516
REMARK  213  A    between atoms: _518  and  _520
REMARK  214  A    between atoms: _520  and  _521
REMARK  215  A    between atoms: _520  and  _523
REMARK  216  A    between atoms: _523  and  _524
REMARK  217  A    between atoms: _524  and  _525
REMARK  218  A    between atoms: _525  and  _526
REMARK  219  A    between atoms: _535  and  _537
REMARK  220  A    between atoms: _537  and  _538
REMARK  221  A    between atoms: _540  and  _542
REMARK  222  A    between atoms: _542  and  _543
REMARK  223  A    between atoms: _542  and  _545
REMARK  224  A    between atoms: _547  and  _549
REMARK  225  A    between atoms: _549  and  _550
REMARK  226  A    between atoms: _553  and  _555
REMARK  227  A    between atoms: _555  and  _556
REMARK  228  A    between atoms: _555  and  _558
REMARK  229  A    between atoms: _558  and  _559
REMARK  230  A    between atoms: _562  and  _564
REMARK  231  A    between atoms: _564  and  _565
REMARK  232  A    between atoms: _564  and  _567
REMARK  233  A    between atoms: _567  and  _568
REMARK  234  A    between atoms: _568  and  _569
REMARK  235  A    between atoms: _569  and  _570
REMARK  236  A    between atoms: _570  and  _571
REMARK  237  A    between atoms: _576  and  _577
REMARK  238  A    between atoms: _582  and  _584
REMARK  239  A    between atoms: _584  and  _585
REMARK  240  A    between atoms: _587  and  _589
REMARK  241  A    between atoms: _589  and  _590
REMARK  242  A    between atoms: _589  and  _592
REMARK  243  A    between atoms: _595  and  _597
REMARK  244  A    between atoms: _597  and  _598
REMARK  245  A    between atoms: _597  and  _600
REMARK  246  A    between atoms: _600  and  _601
REMARK  247  A    between atoms: _606  and  _607
REMARK                            x       y       z     vdW  Elec       q    Type
REMARK                         _______ _______ _______ _____ _____    ______ ____
ROOT
ATOM      1  O   HOH     1      -4.607 -24.422 -29.749  0.00  0.00    +0.000 OA
ENDROOT
TORSDOF 0
REMARK  Name = ../refined-set-2016/4zhl/4zhl_pocket.pdb
REMARK  247 active torsions:
REMARK  status: ('A' for Active; 'I' for Inactive)
REMARK    1  A    between atoms: _1  and  _5
REMARK    2  A    between atoms: _5  and  _6
REMARK    3  A    between atoms: _5  and  _8
REMARK    4  A    between atoms: _8  and  _9
REMARK    5  A    between atoms: _12  and  _14
REMARK    6  A    between atoms: _14  and  _15
REMARK    7  A    between atoms: _14  and  _17
REMARK    8  A    between atoms: _17  and  _18
REMARK    9  A    between atoms: _21  and  _23
REMARK   10  A    between atoms: _23  and  _24
REMARK   11  A    between atoms: _23  and  _26
REMARK   12  A    between atoms: _26  and  _27
REMARK   13  A    between atoms: _30  and  _32
REMARK   14  A    between atoms: _32  and  _33
REMARK   15  A    between atoms: _32  and  _35
REMARK   16  A    between atoms: _35  and  _36
REMARK   17  A    between atoms: _36  and  _37
REMARK   18  A    between atoms: _37  and  _38
REMARK   19  A    between atoms: _47  and  _49
REMARK   20  A    between atoms: _49  and  _50
REMARK   21  A    between atoms: _49  and  _52
REMARK   22  A    between atoms: _52  and  _53
REMARK   23  A    between atoms: _56  and  _58
REMARK   24  A    between atoms: _58  and  _59
REMARK   25  A    between atoms: _58  and  _61
REMARK   26  A    between atoms: _61  and  _62
REMARK   27  A    between atoms: _67  and  _68
REMARK   28  A    between atoms: _70  and  _72
REMARK   29  A    between atoms: _72  and  _73
REMARK   30  A    between atoms: _72  and  _75
REMARK   31  A    between atoms: _78  and  _80
REMARK   32  A    between atoms: _80  and  _81
REMARK   33  A    between atoms: _80  and  _83
REMARK   34  A    between atoms: _83  and  _84
REMARK   35  A    between atoms: _84  and  _122
REMARK   36  A    between atoms: _85  and  _87
REMARK   37  A    between atoms: _87  and  _88
REMARK   38  A    between atoms: _90  and  _92
REMARK   39  A    between atoms: _92  and  _93
REMARK   40  A    between atoms: _96  and  _98
REMARK   41  A    between atoms: _98  and  _99
REMARK   42  A    between atoms: _98  and  _101
REMARK   43  A    between atoms: _101  and  _102
REMARK   44  A    between atoms: _105  and  _107
REMARK   45  A    between atoms: _107  and  _108
REMARK   46  A    between atoms: _107  and  _110
REMARK   47  A    between atoms: _110  and  _111
REMARK   48  A    between atoms: _116  and  _118
REMARK   49  A    between atoms: _118  and  _119
REMARK   50  A    between atoms: _118  and  _121
REMARK   51  A    between atoms: _121  and  _122
REMARK   52  A    between atoms: _123  and  _125
REMARK   53  A    between atoms: _125  and  _126
REMARK   54  A    between atoms: _125  and  _128
REMARK   55  A    between atoms: _128  and  _129
REMARK   56  A    between atoms: _135  and  _137
REMARK   57  A    between atoms: _137  and  _138
REMARK   58  A    between atoms: _137  and  _140
REMARK   59  A    between atoms: _140  and  _141
REMARK   60  A    between atoms: _144  and  _146
REMARK   61  A    between atoms: _146  and  _147
REMARK   62  A    between atoms: _146  and  _149
REMARK   63  A    between atoms: _149  and  _150
REMARK   64  A    between atoms: _153  and  _155
REMARK   65  A    between atoms: _155  and  _156
REMARK   66  A    between atoms: _155  and  _158
REMARK   67  A    between atoms: _158  and  _159
REMARK   68  A    between atoms: _164  and  _165
REMARK   69  A    between atoms: _167  and  _169
REMARK   70  A    between atoms: _169  and  _170
REMARK   71  A    between atoms: _169  and  _172
REMARK   72  A    between atoms: _172  and  _173
REMARK   73  A    between atoms: _178  and  _179
REMARK   74  A    between atoms: _181  and  _183
REMARK   75  A    between atoms: _183  and  _184
REMARK   76  A    between atoms: _183  and  _186
REMARK   77  A    between atoms: _186  and  _187
REMARK   78  A    between atoms: _190  and  _192
REMARK   79  A    between atoms: _192  and  _193
REMARK   80  A    between atoms: _192  and  _195
REMARK   81  A    between atoms: _195  and  _196
REMARK   82  A    between atoms: _201  and  _202
REMARK   83  A    between atoms: _204  and  _206
REMARK   84  A    between atoms: _206  and  _207
REMARK   85  A    between atoms: _206  and  _209
REMARK   86  A    between atoms: _209  and  _210
REMARK   87  A    between atoms: _212  and  _214
REMARK   88  A    between atoms: _214  and  _215
REMARK   89  A    between atoms: _218  and  _220
REMARK   90  A    between atoms: _220  and  _221
REMARK   91  A    between atoms: _220  and  _223
REMARK   92  A    between atoms: _223  and  _224
REMARK   93  A    between atoms: _227  and  _229
REMARK   94  A    between atoms: _229  and  _230
REMARK   95  A    between atoms: _229  and  _232
REMARK   96  A    between atoms: _232  and  _233
REMARK   97  A    between atoms: _236  and  _238
REMARK   98  A    between atoms: _238  and  _239
REMARK   99  A    between atoms: _238  and  _241
REMARK  100  A    between atoms: _241  and  _242
REMARK  101  A    between atoms: _245  and  _247
REMARK  102  A    between atoms: _247  and  _248
REMARK  103  A    between atoms: _251  and  _253
REMARK  104  A    between atoms: _253  and  _254
REMARK  105  A    between atoms: _253  and  _256
REMARK  106  A    between atoms: _256  and  _257
REMARK  107  A    between atoms: _262  and  _263
REMARK  108  A    between atoms: _265  and  _267
REMARK  109  A    between atoms: _267  and  _268
REMARK  110  A    between atoms: _267  and  _270
REMARK  111  A    between atoms: _270  and  _271
REMARK  112  A    between atoms: _276  and  _278
REMARK  113  A    between atoms: _278  and  _279
REMARK  114  A    between atoms: _278  and  _281
REMARK  115  A    between atoms: _281  and  _282
REMARK  116  A    between atoms: _285  and  _287
REMARK  117  A    between atoms: _287  and  _288
REMARK  118  A    between atoms: _287  and  _290
REMARK  119  A    between atoms: _290  and  _291
REMARK  120  A    between atoms: _294  and  _296
REMARK  121  A    between atoms: _296  and  _297
REMARK  122  A    between atoms: _296  and  _299
REMARK  123  A    between atoms: _299  and  _300
REMARK  124  A    between atoms: _306  and  _308
REMARK  125  A    between atoms: _308  and  _309
REMARK  126  A    between atoms: _311  and  _313
REMARK  127  A    between atoms: _313  and  _314
REMARK  128  A    between atoms: _313  and  _316
REMARK  129  A    between atoms: _316  and  _317
REMARK  130  A    between atoms: _317  and  _318
REMARK  131  A    between atoms: _318  and  _319
REMARK  132  A    between atoms: _319  and  _320
REMARK  133  A    between atoms: _324  and  _326
REMARK  134  A    between atoms: _326  and  _327
REMARK  135  A    between atoms: _326  and  _329
REMARK  136  A    between atoms: _329  and  _330
REMARK  137  A    between atoms: _332  and  _334
REMARK  138  A    between atoms: _334  and  _335
REMARK  139  A    between atoms: _334  and  _337
REMARK  140  A    between atoms: _337  and  _338
REMARK  141  A    between atoms: _343  and  _344
REMARK  142  A    between atoms: _346  and  _348
REMARK  143  A    between atoms: _348  and  _349
REMARK  144  A    between atoms: _348  and  _351
REMARK  145  A    between atoms: _354  and  _356
REMARK  146  A    between atoms: _356  and  _357
REMARK  147  A    between atoms: _356  and  _359
REMARK  148  A    between atoms: _359  and  _360
REMARK  149  A    between atoms: _365  and  _366
REMARK  150  A    between atoms: _368  and  _370
REMARK  151  A    between atoms: _370  and  _371
REMARK  152  A    between atoms: _370  and  _373
REMARK  153  A    between atoms: _373  and  _374
REMARK  154  A    between atoms: _379  and  _380
REMARK  155  A    between atoms: _382  and  _384
REMARK  156  A    between atoms: _384  and  _385
REMARK  157  A    between atoms: _384  and  _387
REMARK  158  A    between atoms: _387  and  _388
REMARK  159  A    between atoms: _388  and  _389
REMARK  160  A    between atoms: _392  and  _394
REMARK  161  A    between atoms: _394  and  _395
REMARK  162  A    between atoms: _398  and  _400
REMARK  163  A    between atoms: _400  and  _401
REMARK  164  A    between atoms: _404  and  _406
REMARK  165  A    between atoms: _406  and  _407
REMARK  166  A    between atoms: _406  and  _409
REMARK  167  A    between atoms: _409  and  _410
REMARK  168  A    between atoms: _413  and  _415
REMARK  169  A    between atoms: _415  and  _416
REMARK  170  A    between atoms: _415  and  _418
REMARK  171  A    between atoms: _418  and  _419
REMARK  172  A    between atoms: _422  and  _424
REMARK  173  A    between atoms: _424  and  _425
REMARK  174  A    between atoms: _424  and  _427
REMARK  175  A    between atoms: _427  and  _428
REMARK  176  A    between atoms: _430  and  _432
REMARK  177  A    between atoms: _432  and  _433
REMARK  178  A    between atoms: _432  and  _435
REMARK  179  A    between atoms: _435  and  _436
REMARK  180  A    between atoms: _436  and  _546
REMARK  181  A    between atoms: _437  and  _439
REMARK  182  A    between atoms: _439  and  _440
REMARK  183  A    between atoms: _439  and  _442
REMARK  184  A    between atoms: _442  and  _443
REMARK  185  A    between atoms: _443  and  _444
REMARK  186  A    between atoms: _449  and  _451
REMARK  187  A    between atoms: _451  and  _452
REMARK  188  A    between atoms: _454  and  _456
REMARK  189  A    between atoms: _456  and  _457
REMARK  190  A    between atoms: _456  and  _459
REMARK  191  A    between atoms: _459  and  _460
REMARK  192  A    between atoms: _463  and  _465
REMARK  193  A    between atoms: _465  and  _466
REMARK  194  A    between atoms: _465  and  _468
REMARK  195  A    between atoms: _468  and  _469
REMARK  196  A    between atoms: _471  and  _473
REMARK  197  A    between atoms: _473  and  _474
REMARK  198  A    between atoms: _476  and  _478
REMARK  199  A    between atoms: _478  and  _479
REMARK  200  A    between atoms: _481  and  _483
REMARK  201  A    between atoms: _483  and  _484
REMARK  202  A    between atoms: _483  and  _486
REMARK  203  A    between atoms: _489  and  _491
REMARK  204  A    between atoms: _491  and  _492
REMARK  205  A    between atoms: _491  and  _494
REMARK  206  A    between atoms: _494  and  _495
REMARK  207  A    between atoms: _497  and  _499
REMARK  208  A    between atoms: _499  and  _500
REMARK  209  A    between atoms: _499  and  _502
REMARK  210  A    between atoms: _502  and  _503
REMARK  211  A    between atoms: _513  and  _515
REMARK  212  A    between atoms: _515  and  _516
REMARK  213  A    between atoms: _518  and  _520
REMARK  214  A    between atoms: _520  and  _521
REMARK  215  A    between atoms: _520  and  _523
REMARK  216  A    between atoms: _523  and  _524
REMARK  217  A    between atoms: _524  and  _525
REMARK  218  A    between atoms: _525  and  _526
REMARK  219  A    between atoms: _535  and  _537
REMARK  220  A    between atoms: _537  and  _538
REMARK  221  A    between atoms: _540  and  _542
REMARK  222  A    between atoms: _542  and  _543
REMARK  223  A    between atoms: _542  and  _545
REMARK  224  A    between atoms: _547  and  _549
REMARK  225  A    between atoms: _549  and  _550
REMARK  226  A    between atoms: _553  and  _555
REMARK  227  A    between atoms: _555  and  _556
REMARK  228  A    between atoms: _555  and  _558
REMARK  229  A    between atoms: _558  and  _559
REMARK  230  A    between atoms: _562  and  _564
REMARK  231  A    between atoms: _564  and  _565
REMARK  232  A    between atoms: _564  and  _567
REMARK  233  A    between atoms: _567  and  _568
REMARK  234  A    between atoms: _568  and  _569
REMARK  235  A    between atoms: _569  and  _570
REMARK  236  A    between atoms: _570  and  _571
REMARK  237  A    between atoms: _576  and  _577
REMARK  238  A    between atoms: _582  and  _584
REMARK  239  A    between atoms: _584  and  _585
REMARK  240  A    between atoms: _587  and  _589
REMARK  241  A    between atoms: _589  and  _590
REMARK  242  A    between atoms: _589  and  _592
REMARK  243  A    between atoms: _595  and  _597
REMARK  244  A    between atoms: _597  and  _598
REMARK  245  A    between atoms: _597  and  _600
REMARK  246  A    between atoms: _600  and  _601
REMARK  247  A    between atoms: _606  and  _607
REMARK                            x       y       z     vdW  Elec       q    Type
REMARK                         _______ _______ _______ _____ _____    ______ ____
ROOT
ATOM      1  O   HOH     1       0.634 -19.498 -22.707  0.00  0.00    +0.000 OA
ENDROOT
TORSDOF 0
REMARK  Name = ../refined-set-2016/4zhl/4zhl_pocket.pdb
REMARK  247 active torsions:
REMARK  status: ('A' for Active; 'I' for Inactive)
REMARK    1  A    between atoms: _1  and  _5
REMARK    2  A    between atoms: _5  and  _6
REMARK    3  A    between atoms: _5  and  _8
REMARK    4  A    between atoms: _8  and  _9
REMARK    5  A    between atoms: _12  and  _14
REMARK    6  A    between atoms: _14  and  _15
REMARK    7  A    between atoms: _14  and  _17
REMARK    8  A    between atoms: _17  and  _18
REMARK    9  A    between atoms: _21  and  _23
REMARK   10  A    between atoms: _23  and  _24
REMARK   11  A    between atoms: _23  and  _26
REMARK   12  A    between atoms: _26  and  _27
REMARK   13  A    between atoms: _30  and  _32
REMARK   14  A    between atoms: _32  and  _33
REMARK   15  A    between atoms: _32  and  _35
REMARK   16  A    between atoms: _35  and  _36
REMARK   17  A    between atoms: _36  and  _37
REMARK   18  A    between atoms: _37  and  _38
REMARK   19  A    between atoms: _47  and  _49
REMARK   20  A    between atoms: _49  and  _50
REMARK   21  A    between atoms: _49  and  _52
REMARK   22  A    between atoms: _52  and  _53
REMARK   23  A    between atoms: _56  and  _58
REMARK   24  A    between atoms: _58  and  _59
REMARK   25  A    between atoms: _58  and  _61
REMARK   26  A    between atoms: _61  and  _62
REMARK   27  A    between atoms: _67  and  _68
REMARK   28  A    between atoms: _70  and  _72
REMARK   29  A    between atoms: _72  and  _73
REMARK   30  A    between atoms: _72  and  _75
REMARK   31  A    between atoms: _78  and  _80
REMARK   32  A    between atoms: _80  and  _81
REMARK   33  A    between atoms: _80  and  _83
REMARK   34  A    between atoms: _83  and  _84
REMARK   35  A    between atoms: _84  and  _122
REMARK   36  A    between atoms: _85  and  _87
REMARK   37  A    between atoms: _87  and  _88
REMARK   38  A    between atoms: _90  and  _92
REMARK   39  A    between atoms: _92  and  _93
REMARK   40  A    between atoms: _96  and  _98
REMARK   41  A    between atoms: _98  and  _99
REMARK   42  A    between atoms: _98  and  _101
REMARK   43  A    between atoms: _101  and  _102
REMARK   44  A    between atoms: _105  and  _107
REMARK   45  A    between atoms: _107  and  _108
REMARK   46  A    between atoms: _107  and  _110
REMARK   47  A    between atoms: _110  and  _111
REMARK   48  A    between atoms: _116  and  _118
REMARK   49  A    between atoms: _118  and  _119
REMARK   50  A    between atoms: _118  and  _121
REMARK   51  A    between atoms: _121  and  _122
REMARK   52  A    between atoms: _123  and  _125
REMARK   53  A    between atoms: _125  and  _126
REMARK   54  A    between atoms: _125  and  _128
REMARK   55  A    between atoms: _128  and  _129
REMARK   56  A    between atoms: _135  and  _137
REMARK   57  A    between atoms: _137  and  _138
REMARK   58  A    between atoms: _137  and  _140
REMARK   59  A    between atoms: _140  and  _141
REMARK   60  A    between atoms: _144  and  _146
REMARK   61  A    between atoms: _146  and  _147
REMARK   62  A    between atoms: _146  and  _149
REMARK   63  A    between atoms: _149  and  _150
REMARK   64  A    between atoms: _153  and  _155
REMARK   65  A    between atoms: _155  and  _156
REMARK   66  A    between atoms: _155  and  _158
REMARK   67  A    between atoms: _158  and  _159
REMARK   68  A    between atoms: _164  and  _165
REMARK   69  A    between atoms: _167  and  _169
REMARK   70  A    between atoms: _169  and  _170
REMARK   71  A    between atoms: _169  and  _172
REMARK   72  A    between atoms: _172  and  _173
REMARK   73  A    between atoms: _178  and  _179
REMARK   74  A    between atoms: _181  and  _183
REMARK   75  A    between atoms: _183  and  _184
REMARK   76  A    between atoms: _183  and  _186
REMARK   77  A    between atoms: _186  and  _187
REMARK   78  A    between atoms: _190  and  _192
REMARK   79  A    between atoms: _192  and  _193
REMARK   80  A    between atoms: _192  and  _195
REMARK   81  A    between atoms: _195  and  _196
REMARK   82  A    between atoms: _201  and  _202
REMARK   83  A    between atoms: _204  and  _206
REMARK   84  A    between atoms: _206  and  _207
REMARK   85  A    between atoms: _206  and  _209
REMARK   86  A    between atoms: _209  and  _210
REMARK   87  A    between atoms: _212  and  _214
REMARK   88  A    between atoms: _214  and  _215
REMARK   89  A    between atoms: _218  and  _220
REMARK   90  A    between atoms: _220  and  _221
REMARK   91  A    between atoms: _220  and  _223
REMARK   92  A    between atoms: _223  and  _224
REMARK   93  A    between atoms: _227  and  _229
REMARK   94  A    between atoms: _229  and  _230
REMARK   95  A    between atoms: _229  and  _232
REMARK   96  A    between atoms: _232  and  _233
REMARK   97  A    between atoms: _236  and  _238
REMARK   98  A    between atoms: _238  and  _239
REMARK   99  A    between atoms: _238  and  _241
REMARK  100  A    between atoms: _241  and  _242
REMARK  101  A    between atoms: _245  and  _247
REMARK  102  A    between atoms: _247  and  _248
REMARK  103  A    between atoms: _251  and  _253
REMARK  104  A    between atoms: _253  and  _254
REMARK  105  A    between atoms: _253  and  _256
REMARK  106  A    between atoms: _256  and  _257
REMARK  107  A    between atoms: _262  and  _263
REMARK  108  A    between atoms: _265  and  _267
REMARK  109  A    between atoms: _267  and  _268
REMARK  110  A    between atoms: _267  and  _270
REMARK  111  A    between atoms: _270  and  _271
REMARK  112  A    between atoms: _276  and  _278
REMARK  113  A    between atoms: _278  and  _279
REMARK  114  A    between atoms: _278  and  _281
REMARK  115  A    between atoms: _281  and  _282
REMARK  116  A    between atoms: _285  and  _287
REMARK  117  A    between atoms: _287  and  _288
REMARK  118  A    between atoms: _287  and  _290
REMARK  119  A    between atoms: _290  and  _291
REMARK  120  A    between atoms: _294  and  _296
REMARK  121  A    between atoms: _296  and  _297
REMARK  122  A    between atoms: _296  and  _299
REMARK  123  A    between atoms: _299  and  _300
REMARK  124  A    between atoms: _306  and  _308
REMARK  125  A    between atoms: _308  and  _309
REMARK  126  A    between atoms: _311  and  _313
REMARK  127  A    between atoms: _313  and  _314
REMARK  128  A    between atoms: _313  and  _316
REMARK  129  A    between atoms: _316  and  _317
REMARK  130  A    between atoms: _317  and  _318
REMARK  131  A    between atoms: _318  and  _319
REMARK  132  A    between atoms: _319  and  _320
REMARK  133  A    between atoms: _324  and  _326
REMARK  134  A    between atoms: _326  and  _327
REMARK  135  A    between atoms: _326  and  _329
REMARK  136  A    between atoms: _329  and  _330
REMARK  137  A    between atoms: _332  and  _334
REMARK  138  A    between atoms: _334  and  _335
REMARK  139  A    between atoms: _334  and  _337
REMARK  140  A    between atoms: _337  and  _338
REMARK  141  A    between atoms: _343  and  _344
REMARK  142  A    between atoms: _346  and  _348
REMARK  143  A    between atoms: _348  and  _349
REMARK  144  A    between atoms: _348  and  _351
REMARK  145  A    between atoms: _354  and  _356
REMARK  146  A    between atoms: _356  and  _357
REMARK  147  A    between atoms: _356  and  _359
REMARK  148  A    between atoms: _359  and  _360
REMARK  149  A    between atoms: _365  and  _366
REMARK  150  A    between atoms: _368  and  _370
REMARK  151  A    between atoms: _370  and  _371
REMARK  152  A    between atoms: _370  and  _373
REMARK  153  A    between atoms: _373  and  _374
REMARK  154  A    between atoms: _379  and  _380
REMARK  155  A    between atoms: _382  and  _384
REMARK  156  A    between atoms: _384  and  _385
REMARK  157  A    between atoms: _384  and  _387
REMARK  158  A    between atoms: _387  and  _388
REMARK  159  A    between atoms: _388  and  _389
REMARK  160  A    between atoms: _392  and  _394
REMARK  161  A    between atoms: _394  and  _395
REMARK  162  A    between atoms: _398  and  _400
REMARK  163  A    between atoms: _400  and  _401
REMARK  164  A    between atoms: _404  and  _406
REMARK  165  A    between atoms: _406  and  _407
REMARK  166  A    between atoms: _406  and  _409
REMARK  167  A    between atoms: _409  and  _410
REMARK  168  A    between atoms: _413  and  _415
REMARK  169  A    between atoms: _415  and  _416
REMARK  170  A    between atoms: _415  and  _418
REMARK  171  A    between atoms: _418  and  _419
REMARK  172  A    between atoms: _422  and  _424
REMARK  173  A    between atoms: _424  and  _425
REMARK  174  A    between atoms: _424  and  _427
REMARK  175  A    between atoms: _427  and  _428
REMARK  176  A    between atoms: _430  and  _432
REMARK  177  A    between atoms: _432  and  _433
REMARK  178  A    between atoms: _432  and  _435
REMARK  179  A    between atoms: _435  and  _436
REMARK  180  A    between atoms: _436  and  _546
REMARK  181  A    between atoms: _437  and  _439
REMARK  182  A    between atoms: _439  and  _440
REMARK  183  A    between atoms: _439  and  _442
REMARK  184  A    between atoms: _442  and  _443
REMARK  185  A    between atoms: _443  and  _444
REMARK  186  A    between atoms: _449  and  _451
REMARK  187  A    between atoms: _451  and  _452
REMARK  188  A    between atoms: _454  and  _456
REMARK  189  A    between atoms: _456  and  _457
REMARK  190  A    between atoms: _456  and  _459
REMARK  191  A    between atoms: _459  and  _460
REMARK  192  A    between atoms: _463  and  _465
REMARK  193  A    between atoms: _465  and  _466
REMARK  194  A    between atoms: _465  and  _468
REMARK  195  A    between atoms: _468  and  _469
REMARK  196  A    between atoms: _471  and  _473
REMARK  197  A    between atoms: _473  and  _474
REMARK  198  A    between atoms: _476  and  _478
REMARK  199  A    between atoms: _478  and  _479
REMARK  200  A    between atoms: _481  and  _483
REMARK  201  A    between atoms: _483  and  _484
REMARK  202  A    between atoms: _483  and  _486
REMARK  203  A    between atoms: _489  and  _491
REMARK  204  A    between atoms: _491  and  _492
REMARK  205  A    between atoms: _491  and  _494
REMARK  206  A    between atoms: _494  and  _495
REMARK  207  A    between atoms: _497  and  _499
REMARK  208  A    between atoms: _499  and  _500
REMARK  209  A    between atoms: _499  and  _502
REMARK  210  A    between atoms: _502  and  _503
REMARK  211  A    between atoms: _513  and  _515
REMARK  212  A    between atoms: _515  and  _516
REMARK  213  A    between atoms: _518  and  _520
REMARK  214  A    between atoms: _520  and  _521
REMARK  215  A    between atoms: _520  and  _523
REMARK  216  A    between atoms: _523  and  _524
REMARK  217  A    between atoms: _524  and  _525
REMARK  218  A    between atoms: _525  and  _526
REMARK  219  A    between atoms: _535  and  _537
REMARK  220  A    between atoms: _537  and  _538
REMARK  221  A    between atoms: _540  and  _542
REMARK  222  A    between atoms: _542  and  _543
REMARK  223  A    between atoms: _542  and  _545
REMARK  224  A    between atoms: _547  and  _549
REMARK  225  A    between atoms: _549  and  _550
REMARK  226  A    between atoms: _553  and  _555
REMARK  227  A    between atoms: _555  and  _556
REMARK  228  A    between atoms: _555  and  _558
REMARK  229  A    between atoms: _558  and  _559
REMARK  230  A    between atoms: _562  and  _564
REMARK  231  A    between atoms: _564  and  _565
REMARK  232  A    between atoms: _564  and  _567
REMARK  233  A    between atoms: _567  and  _568
REMARK  234  A    between atoms: _568  and  _569
REMARK  235  A    between atoms: _569  and  _570
REMARK  236  A    between atoms: _570  and  _571
REMARK  237  A    between atoms: _576  and  _577
REMARK  238  A    between atoms: _582  and  _584
REMARK  239  A    between atoms: _584  and  _585
REMARK  240  A    between atoms: _587  and  _589
REMARK  241  A    between atoms: _589  and  _590
REMARK  242  A    between atoms: _589  and  _592
REMARK  243  A    between atoms: _595  and  _597
REMARK  244  A    between atoms: _597  and  _598
REMARK  245  A    between atoms: _597  and  _600
REMARK  246  A    between atoms: _600  and  _601
REMARK  247  A    between atoms: _606  and  _607
REMARK                            x       y       z     vdW  Elec       q    Type
REMARK                         _______ _______ _______ _____ _____    ______ ____
ROOT
ATOM      1  O   HOH     1       2.769 -21.902 -31.481  0.00  0.00    +0.000 OA
ENDROOT
TORSDOF 0
REMARK  Name = ../refined-set-2016/4zhl/4zhl_pocket.pdb
REMARK  247 active torsions:
REMARK  status: ('A' for Active; 'I' for Inactive)
REMARK    1  A    between atoms: _1  and  _5
REMARK    2  A    between atoms: _5  and  _6
REMARK    3  A    between atoms: _5  and  _8
REMARK    4  A    between atoms: _8  and  _9
REMARK    5  A    between atoms: _12  and  _14
REMARK    6  A    between atoms: _14  and  _15
REMARK    7  A    between atoms: _14  and  _17
REMARK    8  A    between atoms: _17  and  _18
REMARK    9  A    between atoms: _21  and  _23
REMARK   10  A    between atoms: _23  and  _24
REMARK   11  A    between atoms: _23  and  _26
REMARK   12  A    between atoms: _26  and  _27
REMARK   13  A    between atoms: _30  and  _32
REMARK   14  A    between atoms: _32  and  _33
REMARK   15  A    between atoms: _32  and  _35
REMARK   16  A    between atoms: _35  and  _36
REMARK   17  A    between atoms: _36  and  _37
REMARK   18  A    between atoms: _37  and  _38
REMARK   19  A    between atoms: _47  and  _49
REMARK   20  A    between atoms: _49  and  _50
REMARK   21  A    between atoms: _49  and  _52
REMARK   22  A    between atoms: _52  and  _53
REMARK   23  A    between atoms: _56  and  _58
REMARK   24  A    between atoms: _58  and  _59
REMARK   25  A    between atoms: _58  and  _61
REMARK   26  A    between atoms: _61  and  _62
REMARK   27  A    between atoms: _67  and  _68
REMARK   28  A    between atoms: _70  and  _72
REMARK   29  A    between atoms: _72  and  _73
REMARK   30  A    between atoms: _72  and  _75
REMARK   31  A    between atoms: _78  and  _80
REMARK   32  A    between atoms: _80  and  _81
REMARK   33  A    between atoms: _80  and  _83
REMARK   34  A    between atoms: _83  and  _84
REMARK   35  A    between atoms: _84  and  _122
REMARK   36  A    between atoms: _85  and  _87
REMARK   37  A    between atoms: _87  and  _88
REMARK   38  A    between atoms: _90  and  _92
REMARK   39  A    between atoms: _92  and  _93
REMARK   40  A    between atoms: _96  and  _98
REMARK   41  A    between atoms: _98  and  _99
REMARK   42  A    between atoms: _98  and  _101
REMARK   43  A    between atoms: _101  and  _102
REMARK   44  A    between atoms: _105  and  _107
REMARK   45  A    between atoms: _107  and  _108
REMARK   46  A    between atoms: _107  and  _110
REMARK   47  A    between atoms: _110  and  _111
REMARK   48  A    between atoms: _116  and  _118
REMARK   49  A    between atoms: _118  and  _119
REMARK   50  A    between atoms: _118  and  _121
REMARK   51  A    between atoms: _121  and  _122
REMARK   52  A    between atoms: _123  and  _125
REMARK   53  A    between atoms: _125  and  _126
REMARK   54  A    between atoms: _125  and  _128
REMARK   55  A    between atoms: _128  and  _129
REMARK   56  A    between atoms: _135  and  _137
REMARK   57  A    between atoms: _137  and  _138
REMARK   58  A    between atoms: _137  and  _140
REMARK   59  A    between atoms: _140  and  _141
REMARK   60  A    between atoms: _144  and  _146
REMARK   61  A    between atoms: _146  and  _147
REMARK   62  A    between atoms: _146  and  _149
REMARK   63  A    between atoms: _149  and  _150
REMARK   64  A    between atoms: _153  and  _155
REMARK   65  A    between atoms: _155  and  _156
REMARK   66  A    between atoms: _155  and  _158
REMARK   67  A    between atoms: _158  and  _159
REMARK   68  A    between atoms: _164  and  _165
REMARK   69  A    between atoms: _167  and  _169
REMARK   70  A    between atoms: _169  and  _170
REMARK   71  A    between atoms: _169  and  _172
REMARK   72  A    between atoms: _172  and  _173
REMARK   73  A    between atoms: _178  and  _179
REMARK   74  A    between atoms: _181  and  _183
REMARK   75  A    between atoms: _183  and  _184
REMARK   76  A    between atoms: _183  and  _186
REMARK   77  A    between atoms: _186  and  _187
REMARK   78  A    between atoms: _190  and  _192
REMARK   79  A    between atoms: _192  and  _193
REMARK   80  A    between atoms: _192  and  _195
REMARK   81  A    between atoms: _195  and  _196
REMARK   82  A    between atoms: _201  and  _202
REMARK   83  A    between atoms: _204  and  _206
REMARK   84  A    between atoms: _206  and  _207
REMARK   85  A    between atoms: _206  and  _209
REMARK   86  A    between atoms: _209  and  _210
REMARK   87  A    between atoms: _212  and  _214
REMARK   88  A    between atoms: _214  and  _215
REMARK   89  A    between atoms: _218  and  _220
REMARK   90  A    between atoms: _220  and  _221
REMARK   91  A    between atoms: _220  and  _223
REMARK   92  A    between atoms: _223  and  _224
REMARK   93  A    between atoms: _227  and  _229
REMARK   94  A    between atoms: _229  and  _230
REMARK   95  A    between atoms: _229  and  _232
REMARK   96  A    between atoms: _232  and  _233
REMARK   97  A    between atoms: _236  and  _238
REMARK   98  A    between atoms: _238  and  _239
REMARK   99  A    between atoms: _238  and  _241
REMARK  100  A    between atoms: _241  and  _242
REMARK  101  A    between atoms: _245  and  _247
REMARK  102  A    between atoms: _247  and  _248
REMARK  103  A    between atoms: _251  and  _253
REMARK  104  A    between atoms: _253  and  _254
REMARK  105  A    between atoms: _253  and  _256
REMARK  106  A    between atoms: _256  and  _257
REMARK  107  A    between atoms: _262  and  _263
REMARK  108  A    between atoms: _265  and  _267
REMARK  109  A    between atoms: _267  and  _268
REMARK  110  A    between atoms: _267  and  _270
REMARK  111  A    between atoms: _270  and  _271
REMARK  112  A    between atoms: _276  and  _278
REMARK  113  A    between atoms: _278  and  _279
REMARK  114  A    between atoms: _278  and  _281
REMARK  115  A    between atoms: _281  and  _282
REMARK  116  A    between atoms: _285  and  _287
REMARK  117  A    between atoms: _287  and  _288
REMARK  118  A    between atoms: _287  and  _290
REMARK  119  A    between atoms: _290  and  _291
REMARK  120  A    between atoms: _294  and  _296
REMARK  121  A    between atoms: _296  and  _297
REMARK  122  A    between atoms: _296  and  _299
REMARK  123  A    between atoms: _299  and  _300
REMARK  124  A    between atoms: _306  and  _308
REMARK  125  A    between atoms: _308  and  _309
REMARK  126  A    between atoms: _311  and  _313
REMARK  127  A    between atoms: _313  and  _314
REMARK  128  A    between atoms: _313  and  _316
REMARK  129  A    between atoms: _316  and  _317
REMARK  130  A    between atoms: _317  and  _318
REMARK  131  A    between atoms: _318  and  _319
REMARK  132  A    between atoms: _319  and  _320
REMARK  133  A    between atoms: _324  and  _326
REMARK  134  A    between atoms: _326  and  _327
REMARK  135  A    between atoms: _326  and  _329
REMARK  136  A    between atoms: _329  and  _330
REMARK  137  A    between atoms: _332  and  _334
REMARK  138  A    between atoms: _334  and  _335
REMARK  139  A    between atoms: _334  and  _337
REMARK  140  A    between atoms: _337  and  _338
REMARK  141  A    between atoms: _343  and  _344
REMARK  142  A    between atoms: _346  and  _348
REMARK  143  A    between atoms: _348  and  _349
REMARK  144  A    between atoms: _348  and  _351
REMARK  145  A    between atoms: _354  and  _356
REMARK  146  A    between atoms: _356  and  _357
REMARK  147  A    between atoms: _356  and  _359
REMARK  148  A    between atoms: _359  and  _360
REMARK  149  A    between atoms: _365  and  _366
REMARK  150  A    between atoms: _368  and  _370
REMARK  151  A    between atoms: _370  and  _371
REMARK  152  A    between atoms: _370  and  _373
REMARK  153  A    between atoms: _373  and  _374
REMARK  154  A    between atoms: _379  and  _380
REMARK  155  A    between atoms: _382  and  _384
REMARK  156  A    between atoms: _384  and  _385
REMARK  157  A    between atoms: _384  and  _387
REMARK  158  A    between atoms: _387  and  _388
REMARK  159  A    between atoms: _388  and  _389
REMARK  160  A    between atoms: _392  and  _394
REMARK  161  A    between atoms: _394  and  _395
REMARK  162  A    between atoms: _398  and  _400
REMARK  163  A    between atoms: _400  and  _401
REMARK  164  A    between atoms: _404  and  _406
REMARK  165  A    between atoms: _406  and  _407
REMARK  166  A    between atoms: _406  and  _409
REMARK  167  A    between atoms: _409  and  _410
REMARK  168  A    between atoms: _413  and  _415
REMARK  169  A    between atoms: _415  and  _416
REMARK  170  A    between atoms: _415  and  _418
REMARK  171  A    between atoms: _418  and  _419
REMARK  172  A    between atoms: _422  and  _424
REMARK  173  A    between atoms: _424  and  _425
REMARK  174  A    between atoms: _424  and  _427
REMARK  175  A    between atoms: _427  and  _428
REMARK  176  A    between atoms: _430  and  _432
REMARK  177  A    between atoms: _432  and  _433
REMARK  178  A    between atoms: _432  and  _435
REMARK  179  A    between atoms: _435  and  _436
REMARK  180  A    between atoms: _436  and  _546
REMARK  181  A    between atoms: _437  and  _439
REMARK  182  A    between atoms: _439  and  _440
REMARK  183  A    between atoms: _439  and  _442
REMARK  184  A    between atoms: _442  and  _443
REMARK  185  A    between atoms: _443  and  _444
REMARK  186  A    between atoms: _449  and  _451
REMARK  187  A    between atoms: _451  and  _452
REMARK  188  A    between atoms: _454  and  _456
REMARK  189  A    between atoms: _456  and  _457
REMARK  190  A    between atoms: _456  and  _459
REMARK  191  A    between atoms: _459  and  _460
REMARK  192  A    between atoms: _463  and  _465
REMARK  193  A    between atoms: _465  and  _466
REMARK  194  A    between atoms: _465  and  _468
REMARK  195  A    between atoms: _468  and  _469
REMARK  196  A    between atoms: _471  and  _473
REMARK  197  A    between atoms: _473  and  _474
REMARK  198  A    between atoms: _476  and  _478
REMARK  199  A    between atoms: _478  and  _479
REMARK  200  A    between atoms: _481  and  _483
REMARK  201  A    between atoms: _483  and  _484
REMARK  202  A    between atoms: _483  and  _486
REMARK  203  A    between atoms: _489  and  _491
REMARK  204  A    between atoms: _491  and  _492
REMARK  205  A    between atoms: _491  and  _494
REMARK  206  A    between atoms: _494  and  _495
REMARK  207  A    between atoms: _497  and  _499
REMARK  208  A    between atoms: _499  and  _500
REMARK  209  A    between atoms: _499  and  _502
REMARK  210  A    between atoms: _502  and  _503
REMARK  211  A    between atoms: _513  and  _515
REMARK  212  A    between atoms: _515  and  _516
REMARK  213  A    between atoms: _518  and  _520
REMARK  214  A    between atoms: _520  and  _521
REMARK  215  A    between atoms: _520  and  _523
REMARK  216  A    between atoms: _523  and  _524
REMARK  217  A    between atoms: _524  and  _525
REMARK  218  A    between atoms: _525  and  _526
REMARK  219  A    between atoms: _535  and  _537
REMARK  220  A    between atoms: _537  and  _538
REMARK  221  A    between atoms: _540  and  _542
REMARK  222  A    between atoms: _542  and  _543
REMARK  223  A    between atoms: _542  and  _545
REMARK  224  A    between atoms: _547  and  _549
REMARK  225  A    between atoms: _549  and  _550
REMARK  226  A    between atoms: _553  and  _555
REMARK  227  A    between atoms: _555  and  _556
REMARK  228  A    between atoms: _555  and  _558
REMARK  229  A    between atoms: _558  and  _559
REMARK  230  A    between atoms: _562  and  _564
REMARK  231  A    between atoms: _564  and  _565
REMARK  232  A    between atoms: _564  and  _567
REMARK  233  A    between atoms: _567  and  _568
REMARK  234  A    between atoms: _568  and  _569
REMARK  235  A    between atoms: _569  and  _570
REMARK  236  A    between atoms: _570  and  _571
REMARK  237  A    between atoms: _576  and  _577
REMARK  238  A    between atoms: _582  and  _584
REMARK  239  A    between atoms: _584  and  _585
REMARK  240  A    between atoms: _587  and  _589
REMARK  241  A    between atoms: _589  and  _590
REMARK  242  A    between atoms: _589  and  _592
REMARK  243  A    between atoms: _595  and  _597
REMARK  244  A    between atoms: _597  and  _598
REMARK  245  A    between atoms: _597  and  _600
REMARK  246  A    between atoms: _600  and  _601
REMARK  247  A    between atoms: _606  and  _607
REMARK                            x       y       z     vdW  Elec       q    Type
REMARK                         _______ _______ _______ _____ _____    ______ ____
ROOT
ATOM      1  O   HOH     1       6.454 -23.113 -29.929  0.00  0.00    +0.000 OA
ENDROOT
TORSDOF 0
