REMARK  Name = ../refined-set-2016/3ejq/3ejq_pocket.pdb
REMARK  160 active torsions:
REMARK  status: ('A' for Active; 'I' for Inactive)
REMARK    1  A    between atoms: _1  and  _3
REMARK    2  A    between atoms: _14  and  _17
REMARK    3  A    between atoms: _17  and  _18
REMARK    4  A    between atoms: _25  and  _26
REMARK    5  A    between atoms: _33  and  _34
REMARK    6  A    between atoms: _39  and  _41
REMARK    7  A    between atoms: _41  and  _42
REMARK    8  A    between atoms: _44  and  _46
REMARK    9  A    between atoms: _46  and  _47
REMARK   10  A    between atoms: _46  and  _49
REMARK   11  A    between atoms: _49  and  _50
REMARK   12  A    between atoms: _60  and  _62
REMARK   13  A    between atoms: _62  and  _63
REMARK   14  A    between atoms: _62  and  _65
REMARK   15  A    between atoms: _65  and  _66
REMARK   16  A    between atoms: _69  and  _71
REMARK   17  A    between atoms: _71  and  _72
REMARK   18  A    between atoms: _71  and  _74
REMARK   19  A    between atoms: _74  and  _75
REMARK   20  A    between atoms: _80  and  _81
REMARK   21  A    between atoms: _83  and  _85
REMARK   22  A    between atoms: _85  and  _86
REMARK   23  A    between atoms: _85  and  _88
REMARK   24  A    between atoms: _88  and  _89
REMARK   25  A    between atoms: _89  and  _90
REMARK   26  A    between atoms: _93  and  _95
REMARK   27  A    between atoms: _95  and  _96
REMARK   28  A    between atoms: _95  and  _98
REMARK   29  A    between atoms: _98  and  _99
REMARK   30  A    between atoms: _99  and  _100
REMARK   31  A    between atoms: _102  and  _104
REMARK   32  A    between atoms: _104  and  _105
REMARK   33  A    between atoms: _104  and  _107
REMARK   34  A    between atoms: _107  and  _108
REMARK   35  A    between atoms: _111  and  _113
REMARK   36  A    between atoms: _113  and  _114
REMARK   37  A    between atoms: _113  and  _116
REMARK   38  A    between atoms: _116  and  _117
REMARK   39  A    between atoms: _117  and  _119
REMARK   40  A    between atoms: _119  and  ZN_433
REMARK   41  A    between atoms: _121  and  _122
REMARK   42  A    between atoms: _127  and  _129
REMARK   43  A    between atoms: _129  and  _130
REMARK   44  A    between atoms: _129  and  _132
REMARK   45  A    between atoms: _132  and  _133
REMARK   46  A    between atoms: _139  and  _141
REMARK   47  A    between atoms: _141  and  _142
REMARK   48  A    between atoms: _141  and  _144
REMARK   49  A    between atoms: _144  and  _145
REMARK   50  A    between atoms: _145  and  _146
REMARK   51  A    between atoms: _151  and  _153
REMARK   52  A    between atoms: _153  and  _154
REMARK   53  A    between atoms: _153  and  _156
REMARK   54  A    between atoms: _156  and  _157
REMARK   55  A    between atoms: _157  and  _158
REMARK   56  A    between atoms: _158  and  _159
REMARK   57  A    between atoms: _168  and  _170
REMARK   58  A    between atoms: _170  and  _171
REMARK   59  A    between atoms: _170  and  _173
REMARK   60  A    between atoms: _173  and  _174
REMARK   61  A    between atoms: _179  and  _180
REMARK   62  A    between atoms: _182  and  _184
REMARK   63  A    between atoms: _184  and  _185
REMARK   64  A    between atoms: _184  and  _187
REMARK   65  A    between atoms: _187  and  _188
REMARK   66  A    between atoms: _190  and  _192
REMARK   67  A    between atoms: _192  and  _193
REMARK   68  A    between atoms: _192  and  _195
REMARK   69  A    between atoms: _195  and  _196
REMARK   70  A    between atoms: _201  and  _202
REMARK   71  A    between atoms: _204  and  _206
REMARK   72  A    between atoms: _206  and  _207
REMARK   73  A    between atoms: _206  and  _209
REMARK   74  A    between atoms: _209  and  _210
REMARK   75  A    between atoms: _213  and  _215
REMARK   76  A    between atoms: _215  and  _216
REMARK   77  A    between atoms: _215  and  _218
REMARK   78  A    between atoms: _218  and  _219
REMARK   79  A    between atoms: _222  and  _224
REMARK   80  A    between atoms: _224  and  _225
REMARK   81  A    between atoms: _224  and  _227
REMARK   82  A    between atoms: _227  and  _228
REMARK   83  A    between atoms: _234  and  _236
REMARK   84  A    between atoms: _236  and  _237
REMARK   85  A    between atoms: _236  and  _239
REMARK   86  A    between atoms: _239  and  _240
REMARK   87  A    between atoms: _245  and  _246
REMARK   88  A    between atoms: _248  and  _250
REMARK   89  A    between atoms: _250  and  _251
REMARK   90  A    between atoms: _250  and  _253
REMARK   91  A    between atoms: _253  and  _254
REMARK   92  A    between atoms: _257  and  _259
REMARK   93  A    between atoms: _259  and  _260
REMARK   94  A    between atoms: _259  and  _262
REMARK   95  A    between atoms: _262  and  _263
REMARK   96  A    between atoms: _263  and  _264
REMARK   97  A    between atoms: _264  and  _265
REMARK   98  A    between atoms: _274  and  _276
REMARK   99  A    between atoms: _276  and  _277
REMARK  100  A    between atoms: _276  and  _279
REMARK  101  A    between atoms: _279  and  _280
REMARK  102  A    between atoms: _290  and  _292
REMARK  103  A    between atoms: _292  and  _293
REMARK  104  A    between atoms: _292  and  _295
REMARK  105  A    between atoms: _295  and  _296
REMARK  106  A    between atoms: _301  and  _303
REMARK  107  A    between atoms: _303  and  _304
REMARK  108  A    between atoms: _303  and  _306
REMARK  109  A    between atoms: _306  and  _307
REMARK  110  A    between atoms: _311  and  ZN_433
REMARK  111  A    between atoms: _312  and  _314
REMARK  112  A    between atoms: _314  and  _315
REMARK  113  A    between atoms: _314  and  _317
REMARK  114  A    between atoms: _317  and  _318
REMARK  115  A    between atoms: _321  and  _323
REMARK  116  A    between atoms: _323  and  _324
REMARK  117  A    between atoms: _326  and  _328
REMARK  118  A    between atoms: _328  and  _329
REMARK  119  A    between atoms: _328  and  _331
REMARK  120  A    between atoms: _331  and  _332
REMARK  121  A    between atoms: _335  and  _337
REMARK  122  A    between atoms: _337  and  _338
REMARK  123  A    between atoms: _340  and  _342
REMARK  124  A    between atoms: _342  and  _343
REMARK  125  A    between atoms: _342  and  _345
REMARK  126  A    between atoms: _345  and  _346
REMARK  127  A    between atoms: _349  and  _351
REMARK  128  A    between atoms: _351  and  _352
REMARK  129  A    between atoms: _355  and  _357
REMARK  130  A    between atoms: _357  and  _358
REMARK  131  A    between atoms: _357  and  _360
REMARK  132  A    between atoms: _360  and  _361
REMARK  133  A    between atoms: _366  and  _367
REMARK  134  A    between atoms: _369  and  _371
REMARK  135  A    between atoms: _371  and  _372
REMARK  136  A    between atoms: _371  and  _374
REMARK  137  A    between atoms: _374  and  _375
REMARK  138  A    between atoms: _378  and  _380
REMARK  139  A    between atoms: _380  and  _381
REMARK  140  A    between atoms: _380  and  _383
REMARK  141  A    between atoms: _383  and  _384
REMARK  142  A    between atoms: _387  and  _389
REMARK  143  A    between atoms: _389  and  _390
REMARK  144  A    between atoms: _389  and  _392
REMARK  145  A    between atoms: _392  and  _393
REMARK  146  A    between atoms: _393  and  _394
REMARK  147  A    between atoms: _397  and  _399
REMARK  148  A    between atoms: _399  and  _400
REMARK  149  A    between atoms: _399  and  _402
REMARK  150  A    between atoms: _402  and  _403
REMARK  151  A    between atoms: _403  and  _404
REMARK  152  A    between atoms: _404  and  _405
REMARK  153  A    between atoms: _414  and  _416
REMARK  154  A    between atoms: _416  and  _417
REMARK  155  A    between atoms: _419  and  _421
REMARK  156  A    between atoms: _421  and  _422
REMARK  157  A    between atoms: _421  and  _424
REMARK  158  A    between atoms: _424  and  _425
REMARK  159  A    between atoms: _428  and  _430
REMARK  160  A    between atoms: _430  and  _431
REMARK                            x       y       z     vdW  Elec       q    Type
REMARK                         _______ _______ _______ _____ _____    ______ ____
ROOT
ATOM      1  C   UNK A   1      36.831  61.278  13.658  0.00  0.00    +0.000 C 
ATOM      2  C   UNK A   1      37.497  62.671  13.579  0.00  0.00    +0.000 C 
ATOM      3  O   UNK A   1      36.942  63.665  14.073  0.00  0.00    +0.000 OA
ATOM      4  N   UNK A   2      38.688  62.720  12.963  0.00  0.00    +0.000 N 
ATOM      5  C   UNK A   2      39.486  63.953  12.896  0.00  0.00    +0.000 C 
ATOM      6  C   UNK A   2      39.612  64.425  11.461  0.00  0.00    +0.000 C 
ATOM      7  N   UNK A   3      38.938  65.517  11.123  0.00  0.00    +0.000 N 
ATOM      8  H   UNK A   3      38.356  66.004  11.834  0.00  0.00    +0.000 HD
ATOM      9  C   UNK A   3      39.007  66.044   9.754  0.00  0.00    +0.000 C 
ATOM     10  C   UNK A   3      37.776  66.901   9.483  0.00  0.00    +0.000 C 
ATOM     11  C   UNK A   3      36.504  66.104   9.585  0.00  0.00    +0.000 C 
ATOM     12  O   UNK A   3      35.740  66.384  10.547  0.00  0.00    +0.000 OA
ATOM     13  O   UNK A   3      36.290  65.208   8.750  0.00  0.00    +0.000 OA
ATOM     14 ZN   UNK A   1      34.549  64.105   8.306  0.00  0.00    +0.000 Zn
ATOM     15  N   UNK A   1      35.072  62.554   9.605  0.00  0.00    +0.000 N 
ATOM     16  C   UNK A   1      34.803  62.675  10.950  0.00  0.00    +0.000 A 
ATOM     17  C   UNK A   1      35.392  61.621  11.577  0.00  0.00    +0.000 A 
ATOM     18  N   UNK A   1      35.999  60.872  10.585  0.00  0.00    +0.000 NA
ATOM     19  C   UNK A   1      35.789  61.456   9.413  0.00  0.00    +0.000 A 
ATOM     20  O   UNK A   2      40.346  63.818  10.666  0.00  0.00    +0.000 OA
ATOM     21  H   UNK A   2      39.059  61.857  12.518  0.00  0.00    +0.000 HD
ATOM     22  C   UNK A   1      35.433  61.240  13.030  0.00  0.00    +0.000 C 
ENDROOT
BRANCH   9  23
ATOM     23  C   UNK A   3      40.256  66.894   9.578  0.00  0.00    +0.000 C 
ATOM     24  O   UNK A   3      40.464  67.833  10.347  0.00  0.00    +0.000 OA
ATOM     25  N   GLY A   4      41.105  66.565   8.582  0.00  0.00    +0.000 N 
ATOM     26  CA  GLY A   4      42.268  67.393   8.213  0.00  0.00    +0.000 C 
ATOM     27  CB  GLY A   4      43.111  66.444   7.338  0.00  0.00    +0.000 C 
ATOM     28  CG  GLY A   4      42.546  65.050   7.577  0.00  0.00    +0.000 C 
ATOM     29  CD  GLY A   4      41.079  65.301   7.810  0.00  0.00    +0.000 C 
BRANCH  26  30
ATOM     30  C   GLY A   4      41.835  68.658   7.463  0.00  0.00    +0.000 C 
ATOM     31  N   GLY A   5      41.086  69.481   8.169  0.00  0.00    +0.000 N 
ATOM     32  H   GLY A   5      40.919  69.256   9.170  0.00  0.00    +0.000 HD
ATOM     33  O   GLY A   4      42.183  68.875   6.301  0.00  0.00    +0.000 OA
BRANCH  31  34
ATOM     34  CA  GLY A   5      40.480  70.685   7.628  0.00  0.00    +0.000 C 
BRANCH  34  35
ATOM     35  C   GLY A   5      38.983  70.491   7.412  0.00  0.00    +0.000 C 
ATOM     36  N   TRP A   6      38.198  71.470   7.867  0.00  0.00    +0.000 N 
ATOM     37  H   TRP A   6      38.621  72.204   8.470  0.00  0.00    +0.000 HD
ATOM     38  O   GLY A   5      38.548  69.451   6.865  0.00  0.00    +0.000 OA
BRANCH  36  39
ATOM     39  CA  TRP A   6      36.755  71.561   7.555  0.00  0.00    +0.000 C 
BRANCH  39  40
ATOM     40  C   TRP A   6      36.239  72.947   7.997  0.00  0.00    +0.000 C 
ATOM     41  N   ILE A   7      35.835  73.069   9.268  0.00  0.00    +0.000 N 
ATOM     42  H   ILE A   7      35.780  72.204   9.843  0.00  0.00    +0.000 HD
ATOM     43  O   TRP A   6      36.217  73.867   7.195  0.00  0.00    +0.000 OA
BRANCH  41  44
ATOM     44  CA  ILE A   7      35.461  74.352   9.912  0.00  0.00    +0.000 C 
BRANCH  44  45
ATOM     45  C   ILE A   7      36.687  75.135  10.356  0.00  0.00    +0.000 C 
ATOM     46  O   ILE A   7      36.603  76.360  10.558  0.00  0.00    +0.000 OA
ENDBRANCH  44  45
BRANCH  44  47
ATOM     47  CB  ILE A   7      34.594  74.128  11.221  0.00  0.00    +0.000 C 
ATOM     48  CG2 ILE A   7      34.306  75.456  11.951  0.00  0.00    +0.000 C 
BRANCH  47  49
ATOM     49  CG1 ILE A   7      33.336  73.322  10.946  0.00  0.00    +0.000 C 
ATOM     50  CD1 ILE A   7      32.624  73.736   9.725  0.00  0.00    +0.000 C 
ENDBRANCH  47  49
ENDBRANCH  44  47
ENDBRANCH  41  44
ENDBRANCH  39  40
BRANCH  39  51
ATOM     51  CB  TRP A   6      35.936  70.415   8.200  0.00  0.00    +0.000 C 
BRANCH  51  52
ATOM     52  CG  TRP A   6      34.457  70.505   7.882  0.00  0.00    +0.000 A 
ATOM     53  CD2 TRP A   6      33.364  70.200   8.764  0.00  0.00    +0.000 A 
ATOM     54  CE3 TRP A   6      33.280  69.740  10.089  0.00  0.00    +0.000 A 
ATOM     55  CZ3 TRP A   6      31.996  69.524  10.647  0.00  0.00    +0.000 A 
ATOM     56  CH2 TRP A   6      30.826  69.741   9.878  0.00  0.00    +0.000 A 
ATOM     57  CZ2 TRP A   6      30.886  70.180   8.578  0.00  0.00    +0.000 A 
ATOM     58  CE2 TRP A   6      32.164  70.391   8.022  0.00  0.00    +0.000 A 
ATOM     59  NE1 TRP A   6      32.511  70.840   6.775  0.00  0.00    +0.000 N 
ATOM     60  HE1 TRP A   6      31.845  71.111   6.024  0.00  0.00    +0.000 HD
ATOM     61  CD1 TRP A   6      33.881  70.874   6.676  0.00  0.00    +0.000 A 
ENDBRANCH  51  52
ENDBRANCH  39  51
ENDBRANCH  36  39
ENDBRANCH  34  35
ENDBRANCH  31  34
ENDBRANCH  26  30
ENDBRANCH   9  23
BRANCH  14  62
ATOM     62  N   UNK A   1      35.387  63.506   6.477  0.00  0.00    +0.000 N 
ATOM     63  C   UNK A   1      36.411  62.699   6.259  0.00  0.00    +0.000 A 
ATOM     64  N   UNK A   1      36.573  62.567   4.951  0.00  0.00    +0.000 NA
ATOM     65  C   UNK A   1      35.610  63.307   4.287  0.00  0.00    +0.000 A 
ATOM     66  C   UNK A   1      34.860  63.897   5.264  0.00  0.00    +0.000 A 
BRANCH  65  67
ATOM     67  C   UNK A   1      35.538  63.379   2.782  0.00  0.00    +0.000 C 
BRANCH  67  68
ATOM     68  C   UNK A   1      36.412  64.507   2.170  0.00  0.00    +0.000 C 
BRANCH  68  69
ATOM     69  N   UNK A   1      37.827  64.363   2.531  0.00  0.00    +0.000 N 
ATOM     70  H   UNK A   1      38.082  63.777   3.352  0.00  0.00    +0.000 HD
ATOM     71  C   UNK A   1      38.797  64.964   1.834  0.00  0.00    +0.000 C 
ATOM     72  O   UNK A   1      38.598  65.748   0.884  0.00  0.00    +0.000 OA
BRANCH  71  73
ATOM     73  C   UNK A   1      40.229  64.702   2.314  0.00  0.00    +0.000 C 
BRANCH  73  74
ATOM     74  N   UNK A   1      41.158  64.776   1.187  0.00  0.00    +0.000 NA
ATOM     75  H   UNK A   1      42.014  65.360   1.281  0.00  0.00    +0.000 HD
ENDBRANCH  73  74
BRANCH  73  76
ATOM     76  C   UNK A   1      40.639  65.742   3.364  0.00  0.00    +0.000 C 
BRANCH  76  77
ATOM     77  C   UNK A   1      39.622  65.947   4.439  0.00  0.00    +0.000 A 
ATOM     78  N   UNK A   1      39.032  64.907   5.142  0.00  0.00    +0.000 NA
ATOM     79  C   UNK A   1      38.198  65.409   6.034  0.00  0.00    +0.000 A 
ATOM     80  N   UNK A   1      38.231  66.729   5.939  0.00  0.00    +0.000 NA
ATOM     81  C   UNK A   1      39.149  67.086   4.987  0.00  0.00    +0.000 A 
ENDBRANCH  76  77
ENDBRANCH  73  76
ENDBRANCH  71  73
ENDBRANCH  68  69
BRANCH  68  82
ATOM     82  C   UNK A   1      35.791  65.896   2.471  0.00  0.00    +0.000 C 
ATOM     83  N   UNK A   3      36.596  66.871   2.953  0.00  0.00    +0.000 N 
ATOM     84  H   UNK A   3      37.521  66.605   3.347  0.00  0.00    +0.000 HD
ATOM     85  O   UNK A   1      34.590  66.044   2.246  0.00  0.00    +0.000 OA
BRANCH  83  86
ATOM     86  C   UNK A   3      36.216  68.290   2.942  0.00  0.00    +0.000 C 
BRANCH  86  87
ATOM     87  C   UNK A   3      37.179  69.137   2.123  0.00  0.00    +0.000 C 
ATOM     88  O   UNK A   3      37.068  70.366   2.130  0.00  0.00    +0.000 OA
ATOM     89  N   GLY A   4      38.092  68.496   1.393  0.00  0.00    +0.000 N 
ATOM     90  H   GLY A   4      38.123  67.457   1.418  0.00  0.00    +0.000 HD
BRANCH  89  91
ATOM     91  CA  GLY A   4      39.051  69.218   0.559  0.00  0.00    +0.000 C 
BRANCH  91  92
ATOM     92  C   GLY A   4      38.512  69.320  -0.852  0.00  0.00    +0.000 C 
ATOM     93  O   GLY A   4      37.778  70.257  -1.193  0.00  0.00    +0.000 OA
ENDBRANCH  91  92
ENDBRANCH  89  91
ENDBRANCH  86  87
BRANCH  86  94
ATOM     94  C   UNK A   3      36.112  68.849   4.376  0.00  0.00    +0.000 C 
BRANCH  94  95
ATOM     95  C   UNK A   3      35.044  68.115   5.199  0.00  0.00    +0.000 C 
ATOM     96  O   UNK A   3      35.396  67.548   6.259  0.00  0.00    +0.000 OA
ATOM     97  O   UNK A   3      33.886  68.096   4.697  0.00  0.00    +0.000 OA
ENDBRANCH  94  95
ENDBRANCH  86  94
ENDBRANCH  83  86
ENDBRANCH  68  82
ENDBRANCH  67  68
ENDBRANCH  65  67
ENDBRANCH  14  62
BRANCH   1  98
ATOM     98  N   UNK A   1      36.777  60.835  15.048  0.00  0.00    +0.000 NA
ATOM     99  H   UNK A   1      35.900  60.959  15.594  0.00  0.00    +0.000 HD
ENDBRANCH   1  98
BRANCH   5 100
ATOM    100  C   UNK A   2      40.882  63.727  13.476  0.00  0.00    +0.000 C 
BRANCH 100 101
ATOM    101  C   UNK A   2      40.889  63.653  15.000  0.00  0.00    +0.000 C 
ATOM    102  O   UNK A   2      41.518  64.471  15.683  0.00  0.00    +0.000 OA
ATOM    103  N   UNK A   2      40.172  62.683  15.542  0.00  0.00    +0.000 N 
ATOM    104  H   UNK A   2      40.123  62.588  16.577  0.00  0.00    +0.000 HD
ATOM    105  H   UNK A   2      39.657  62.015  14.934  0.00  0.00    +0.000 HD
ENDBRANCH 100 101
ENDBRANCH   5 100
BRANCH  14 106
ATOM    106  O   UNK A   1      32.660  63.420   7.804  0.00  0.00    +0.000 OA
BRANCH 106 107
ATOM    107  C   UNK A   1      32.136  62.279   7.619  0.00  0.00    +0.000 C 
ATOM    108  O   UNK A   1      30.885  62.091   7.700  0.00  0.00    +0.000 OA
BRANCH 107 109
ATOM    109  C   UNK A   1      33.049  61.054   7.363  0.00  0.00    +0.000 C 
BRANCH 109 110
ATOM    110  C   UNK A   1      32.375  59.966   6.489  0.00  0.00    +0.000 C 
BRANCH 110 111
ATOM    111  C   UNK A   1      32.284  60.396   5.007  0.00  0.00    +0.000 C 
ATOM    112  O   UNK A   1      31.569  61.357   4.738  0.00  0.00    +0.000 OA
ATOM    113  N   UNK A   3      33.013  59.748   4.048  0.00  0.00    +0.000 N 
ATOM    114  C   UNK A   3      33.990  58.640   4.096  0.00  0.00    +0.000 C 
ATOM    115  C   UNK A   3      34.749  58.788   2.782  0.00  0.00    +0.000 C 
ATOM    116  C   UNK A   3      33.707  59.308   1.817  0.00  0.00    +0.000 C 
ATOM    117  C   UNK A   3      32.811  60.226   2.655  0.00  0.00    +0.000 C 
BRANCH 117 118
ATOM    118  C   UNK A   3      31.355  60.121   2.198  0.00  0.00    +0.000 C 
ATOM    119  O   UNK A   3      30.607  59.244   2.671  0.00  0.00    +0.000 OA
ATOM    120  N   GLY A   4      30.949  61.011   1.293  0.00  0.00    +0.000 N 
ATOM    121  H   GLY A   4      31.644  61.593   0.783  0.00  0.00    +0.000 HD
BRANCH 120 122
ATOM    122  CA  GLY A   4      29.501  61.167   1.017  0.00  0.00    +0.000 C 
BRANCH 122 123
ATOM    123  C   GLY A   4      29.047  60.268  -0.151  0.00  0.00    +0.000 C 
ATOM    124  O   GLY A   4      28.857  60.702  -1.295  0.00  0.00    +0.000 OA
ENDBRANCH 122 123
BRANCH 122 125
ATOM    125  CB  GLY A   4      29.159  62.659   0.800  0.00  0.00    +0.000 C 
BRANCH 125 126
ATOM    126  CG  GLY A   4      30.043  63.620   1.578  0.00  0.00    +0.000 A 
ATOM    127  CD2 GLY A   4      30.348  63.392   2.918  0.00  0.00    +0.000 A 
ATOM    128  CE2 GLY A   4      31.151  64.261   3.624  0.00  0.00    +0.000 A 
ATOM    129  CZ  GLY A   4      31.650  65.407   2.983  0.00  0.00    +0.000 A 
ATOM    130  CE1 GLY A   4      31.324  65.655   1.655  0.00  0.00    +0.000 A 
ATOM    131  CD1 GLY A   4      30.528  64.773   0.960  0.00  0.00    +0.000 A 
ENDBRANCH 125 126
ENDBRANCH 122 125
ENDBRANCH 120 122
ENDBRANCH 117 118
ENDBRANCH 110 111
BRANCH 110 132
ATOM    132  N   UNK A   1      32.901  58.651   6.820  0.00  0.00    +0.000 N 
ATOM    133  C   UNK A   1      32.155  57.773   7.526  0.00  0.00    +0.000 C 
ATOM    134  O   UNK A   1      30.952  57.956   7.785  0.00  0.00    +0.000 OA
ATOM    135  H   UNK A   1      33.858  58.385   6.511  0.00  0.00    +0.000 HD
BRANCH 133 136
ATOM    136  C   UNK A   1      32.818  56.460   7.993  0.00  0.00    +0.000 C 
BRANCH 136 137
ATOM    137  N   UNK A   1      34.091  56.176   7.337  0.00  0.00    +0.000 NA
ATOM    138  H   UNK A   1      34.962  56.590   7.727  0.00  0.00    +0.000 HD
ENDBRANCH 136 137
BRANCH 136 139
ATOM    139  C   UNK A   1      32.948  56.460   9.548  0.00  0.00    +0.000 C 
ATOM    140  C   UNK A   1      33.155  55.050  10.040  0.00  0.00    +0.000 C 
BRANCH 139 141
ATOM    141  C   UNK A   1      34.052  57.422  10.039  0.00  0.00    +0.000 C 
ATOM    142  C   UNK A   1      33.981  57.745  11.540  0.00  0.00    +0.000 C 
ENDBRANCH 139 141
ENDBRANCH 136 139
ENDBRANCH 133 136
ENDBRANCH 110 132
ENDBRANCH 109 110
ENDBRANCH 107 109
ENDBRANCH 106 107
ENDBRANCH  14 106
TORSDOF 45
REMARK  Name = ../refined-set-2016/3ejq/3ejq_pocket.pdb
REMARK  160 active torsions:
REMARK  status: ('A' for Active; 'I' for Inactive)
REMARK    1  A    between atoms: _1  and  _3
REMARK    2  A    between atoms: _14  and  _17
REMARK    3  A    between atoms: _17  and  _18
REMARK    4  A    between atoms: _25  and  _26
REMARK    5  A    between atoms: _33  and  _34
REMARK    6  A    between atoms: _39  and  _41
REMARK    7  A    between atoms: _41  and  _42
REMARK    8  A    between atoms: _44  and  _46
REMARK    9  A    between atoms: _46  and  _47
REMARK   10  A    between atoms: _46  and  _49
REMARK   11  A    between atoms: _49  and  _50
REMARK   12  A    between atoms: _60  and  _62
REMARK   13  A    between atoms: _62  and  _63
REMARK   14  A    between atoms: _62  and  _65
REMARK   15  A    between atoms: _65  and  _66
REMARK   16  A    between atoms: _69  and  _71
REMARK   17  A    between atoms: _71  and  _72
REMARK   18  A    between atoms: _71  and  _74
REMARK   19  A    between atoms: _74  and  _75
REMARK   20  A    between atoms: _80  and  _81
REMARK   21  A    between atoms: _83  and  _85
REMARK   22  A    between atoms: _85  and  _86
REMARK   23  A    between atoms: _85  and  _88
REMARK   24  A    between atoms: _88  and  _89
REMARK   25  A    between atoms: _89  and  _90
REMARK   26  A    between atoms: _93  and  _95
REMARK   27  A    between atoms: _95  and  _96
REMARK   28  A    between atoms: _95  and  _98
REMARK   29  A    between atoms: _98  and  _99
REMARK   30  A    between atoms: _99  and  _100
REMARK   31  A    between atoms: _102  and  _104
REMARK   32  A    between atoms: _104  and  _105
REMARK   33  A    between atoms: _104  and  _107
REMARK   34  A    between atoms: _107  and  _108
REMARK   35  A    between atoms: _111  and  _113
REMARK   36  A    between atoms: _113  and  _114
REMARK   37  A    between atoms: _113  and  _116
REMARK   38  A    between atoms: _116  and  _117
REMARK   39  A    between atoms: _117  and  _119
REMARK   40  A    between atoms: _119  and  ZN_433
REMARK   41  A    between atoms: _121  and  _122
REMARK   42  A    between atoms: _127  and  _129
REMARK   43  A    between atoms: _129  and  _130
REMARK   44  A    between atoms: _129  and  _132
REMARK   45  A    between atoms: _132  and  _133
REMARK   46  A    between atoms: _139  and  _141
REMARK   47  A    between atoms: _141  and  _142
REMARK   48  A    between atoms: _141  and  _144
REMARK   49  A    between atoms: _144  and  _145
REMARK   50  A    between atoms: _145  and  _146
REMARK   51  A    between atoms: _151  and  _153
REMARK   52  A    between atoms: _153  and  _154
REMARK   53  A    between atoms: _153  and  _156
REMARK   54  A    between atoms: _156  and  _157
REMARK   55  A    between atoms: _157  and  _158
REMARK   56  A    between atoms: _158  and  _159
REMARK   57  A    between atoms: _168  and  _170
REMARK   58  A    between atoms: _170  and  _171
REMARK   59  A    between atoms: _170  and  _173
REMARK   60  A    between atoms: _173  and  _174
REMARK   61  A    between atoms: _179  and  _180
REMARK   62  A    between atoms: _182  and  _184
REMARK   63  A    between atoms: _184  and  _185
REMARK   64  A    between atoms: _184  and  _187
REMARK   65  A    between atoms: _187  and  _188
REMARK   66  A    between atoms: _190  and  _192
REMARK   67  A    between atoms: _192  and  _193
REMARK   68  A    between atoms: _192  and  _195
REMARK   69  A    between atoms: _195  and  _196
REMARK   70  A    between atoms: _201  and  _202
REMARK   71  A    between atoms: _204  and  _206
REMARK   72  A    between atoms: _206  and  _207
REMARK   73  A    between atoms: _206  and  _209
REMARK   74  A    between atoms: _209  and  _210
REMARK   75  A    between atoms: _213  and  _215
REMARK   76  A    between atoms: _215  and  _216
REMARK   77  A    between atoms: _215  and  _218
REMARK   78  A    between atoms: _218  and  _219
REMARK   79  A    between atoms: _222  and  _224
REMARK   80  A    between atoms: _224  and  _225
REMARK   81  A    between atoms: _224  and  _227
REMARK   82  A    between atoms: _227  and  _228
REMARK   83  A    between atoms: _234  and  _236
REMARK   84  A    between atoms: _236  and  _237
REMARK   85  A    between atoms: _236  and  _239
REMARK   86  A    between atoms: _239  and  _240
REMARK   87  A    between atoms: _245  and  _246
REMARK   88  A    between atoms: _248  and  _250
REMARK   89  A    between atoms: _250  and  _251
REMARK   90  A    between atoms: _250  and  _253
REMARK   91  A    between atoms: _253  and  _254
REMARK   92  A    between atoms: _257  and  _259
REMARK   93  A    between atoms: _259  and  _260
REMARK   94  A    between atoms: _259  and  _262
REMARK   95  A    between atoms: _262  and  _263
REMARK   96  A    between atoms: _263  and  _264
REMARK   97  A    between atoms: _264  and  _265
REMARK   98  A    between atoms: _274  and  _276
REMARK   99  A    between atoms: _276  and  _277
REMARK  100  A    between atoms: _276  and  _279
REMARK  101  A    between atoms: _279  and  _280
REMARK  102  A    between atoms: _290  and  _292
REMARK  103  A    between atoms: _292  and  _293
REMARK  104  A    between atoms: _292  and  _295
REMARK  105  A    between atoms: _295  and  _296
REMARK  106  A    between atoms: _301  and  _303
REMARK  107  A    between atoms: _303  and  _304
REMARK  108  A    between atoms: _303  and  _306
REMARK  109  A    between atoms: _306  and  _307
REMARK  110  A    between atoms: _311  and  ZN_433
REMARK  111  A    between atoms: _312  and  _314
REMARK  112  A    between atoms: _314  and  _315
REMARK  113  A    between atoms: _314  and  _317
REMARK  114  A    between atoms: _317  and  _318
REMARK  115  A    between atoms: _321  and  _323
REMARK  116  A    between atoms: _323  and  _324
REMARK  117  A    between atoms: _326  and  _328
REMARK  118  A    between atoms: _328  and  _329
REMARK  119  A    between atoms: _328  and  _331
REMARK  120  A    between atoms: _331  and  _332
REMARK  121  A    between atoms: _335  and  _337
REMARK  122  A    between atoms: _337  and  _338
REMARK  123  A    between atoms: _340  and  _342
REMARK  124  A    between atoms: _342  and  _343
REMARK  125  A    between atoms: _342  and  _345
REMARK  126  A    between atoms: _345  and  _346
REMARK  127  A    between atoms: _349  and  _351
REMARK  128  A    between atoms: _351  and  _352
REMARK  129  A    between atoms: _355  and  _357
REMARK  130  A    between atoms: _357  and  _358
REMARK  131  A    between atoms: _357  and  _360
REMARK  132  A    between atoms: _360  and  _361
REMARK  133  A    between atoms: _366  and  _367
REMARK  134  A    between atoms: _369  and  _371
REMARK  135  A    between atoms: _371  and  _372
REMARK  136  A    between atoms: _371  and  _374
REMARK  137  A    between atoms: _374  and  _375
REMARK  138  A    between atoms: _378  and  _380
REMARK  139  A    between atoms: _380  and  _381
REMARK  140  A    between atoms: _380  and  _383
REMARK  141  A    between atoms: _383  and  _384
REMARK  142  A    between atoms: _387  and  _389
REMARK  143  A    between atoms: _389  and  _390
REMARK  144  A    between atoms: _389  and  _392
REMARK  145  A    between atoms: _392  and  _393
REMARK  146  A    between atoms: _393  and  _394
REMARK  147  A    between atoms: _397  and  _399
REMARK  148  A    between atoms: _399  and  _400
REMARK  149  A    between atoms: _399  and  _402
REMARK  150  A    between atoms: _402  and  _403
REMARK  151  A    between atoms: _403  and  _404
REMARK  152  A    between atoms: _404  and  _405
REMARK  153  A    between atoms: _414  and  _416
REMARK  154  A    between atoms: _416  and  _417
REMARK  155  A    between atoms: _419  and  _421
REMARK  156  A    between atoms: _421  and  _422
REMARK  157  A    between atoms: _421  and  _424
REMARK  158  A    between atoms: _424  and  _425
REMARK  159  A    between atoms: _428  and  _430
REMARK  160  A    between atoms: _430  and  _431
REMARK                            x       y       z     vdW  Elec       q    Type
REMARK                         _______ _______ _______ _____ _____    ______ ____
ROOT
ATOM      1  CG  TYR A   1      40.364  70.941  13.077  0.00  0.00    -0.020 A 
ATOM      2  CD2 TYR A   1      39.328  71.149  14.000  0.00  0.00    -0.001 A 
ATOM      3  CE2 TYR A   1      38.007  71.255  13.578  0.00  0.00    +0.036 A 
ATOM      4  CZ  TYR A   1      37.709  71.118  12.207  0.00  0.00    +0.134 A 
ATOM      5  CE1 TYR A   1      38.731  70.918  11.285  0.00  0.00    +0.036 A 
ATOM      6  CD1 TYR A   1      40.024  70.813  11.727  0.00  0.00    -0.001 A 
ENDROOT
BRANCH   4   7
ATOM      7  OH  TYR A   1      36.424  71.208  11.723  0.00  0.00    -0.506 OA
ATOM      8  HH  TYR A   1      35.798  71.349  12.477  0.00  0.00    +0.292 HD
ENDBRANCH   4   7
BRANCH   1   9
ATOM      9  CB  TYR A   1      41.791  70.726  13.500  0.00  0.00    +0.051 C 
BRANCH   9  10
ATOM     10  CA  TYR A   1      42.416  71.688  14.498  0.00  0.00    +0.137 C 
BRANCH  10  11
ATOM     11  N   TYR A   1      42.966  72.848  13.800  0.00  0.00    -0.239 NA
ATOM     12  H   TYR A   1      42.970  72.888  12.761  0.00  0.00    +0.142 HD
ENDBRANCH  10  11
BRANCH  10  13
ATOM     13  C   TYR A   1      43.509  70.925  15.272  0.00  0.00    +0.224 C 
ATOM     14  O   TYR A   1      43.255  70.371  16.344  0.00  0.00    -0.287 OA
ENDBRANCH  10  13
ENDBRANCH   9  10
ENDBRANCH   1   9
TORSDOF 5
REMARK  Name = ../refined-set-2016/3ejq/3ejq_pocket.pdb
REMARK  160 active torsions:
REMARK  status: ('A' for Active; 'I' for Inactive)
REMARK    1  A    between atoms: _1  and  _3
REMARK    2  A    between atoms: _14  and  _17
REMARK    3  A    between atoms: _17  and  _18
REMARK    4  A    between atoms: _25  and  _26
REMARK    5  A    between atoms: _33  and  _34
REMARK    6  A    between atoms: _39  and  _41
REMARK    7  A    between atoms: _41  and  _42
REMARK    8  A    between atoms: _44  and  _46
REMARK    9  A    between atoms: _46  and  _47
REMARK   10  A    between atoms: _46  and  _49
REMARK   11  A    between atoms: _49  and  _50
REMARK   12  A    between atoms: _60  and  _62
REMARK   13  A    between atoms: _62  and  _63
REMARK   14  A    between atoms: _62  and  _65
REMARK   15  A    between atoms: _65  and  _66
REMARK   16  A    between atoms: _69  and  _71
REMARK   17  A    between atoms: _71  and  _72
REMARK   18  A    between atoms: _71  and  _74
REMARK   19  A    between atoms: _74  and  _75
REMARK   20  A    between atoms: _80  and  _81
REMARK   21  A    between atoms: _83  and  _85
REMARK   22  A    between atoms: _85  and  _86
REMARK   23  A    between atoms: _85  and  _88
REMARK   24  A    between atoms: _88  and  _89
REMARK   25  A    between atoms: _89  and  _90
REMARK   26  A    between atoms: _93  and  _95
REMARK   27  A    between atoms: _95  and  _96
REMARK   28  A    between atoms: _95  and  _98
REMARK   29  A    between atoms: _98  and  _99
REMARK   30  A    between atoms: _99  and  _100
REMARK   31  A    between atoms: _102  and  _104
REMARK   32  A    between atoms: _104  and  _105
REMARK   33  A    between atoms: _104  and  _107
REMARK   34  A    between atoms: _107  and  _108
REMARK   35  A    between atoms: _111  and  _113
REMARK   36  A    between atoms: _113  and  _114
REMARK   37  A    between atoms: _113  and  _116
REMARK   38  A    between atoms: _116  and  _117
REMARK   39  A    between atoms: _117  and  _119
REMARK   40  A    between atoms: _119  and  ZN_433
REMARK   41  A    between atoms: _121  and  _122
REMARK   42  A    between atoms: _127  and  _129
REMARK   43  A    between atoms: _129  and  _130
REMARK   44  A    between atoms: _129  and  _132
REMARK   45  A    between atoms: _132  and  _133
REMARK   46  A    between atoms: _139  and  _141
REMARK   47  A    between atoms: _141  and  _142
REMARK   48  A    between atoms: _141  and  _144
REMARK   49  A    between atoms: _144  and  _145
REMARK   50  A    between atoms: _145  and  _146
REMARK   51  A    between atoms: _151  and  _153
REMARK   52  A    between atoms: _153  and  _154
REMARK   53  A    between atoms: _153  and  _156
REMARK   54  A    between atoms: _156  and  _157
REMARK   55  A    between atoms: _157  and  _158
REMARK   56  A    between atoms: _158  and  _159
REMARK   57  A    between atoms: _168  and  _170
REMARK   58  A    between atoms: _170  and  _171
REMARK   59  A    between atoms: _170  and  _173
REMARK   60  A    between atoms: _173  and  _174
REMARK   61  A    between atoms: _179  and  _180
REMARK   62  A    between atoms: _182  and  _184
REMARK   63  A    between atoms: _184  and  _185
REMARK   64  A    between atoms: _184  and  _187
REMARK   65  A    between atoms: _187  and  _188
REMARK   66  A    between atoms: _190  and  _192
REMARK   67  A    between atoms: _192  and  _193
REMARK   68  A    between atoms: _192  and  _195
REMARK   69  A    between atoms: _195  and  _196
REMARK   70  A    between atoms: _201  and  _202
REMARK   71  A    between atoms: _204  and  _206
REMARK   72  A    between atoms: _206  and  _207
REMARK   73  A    between atoms: _206  and  _209
REMARK   74  A    between atoms: _209  and  _210
REMARK   75  A    between atoms: _213  and  _215
REMARK   76  A    between atoms: _215  and  _216
REMARK   77  A    between atoms: _215  and  _218
REMARK   78  A    between atoms: _218  and  _219
REMARK   79  A    between atoms: _222  and  _224
REMARK   80  A    between atoms: _224  and  _225
REMARK   81  A    between atoms: _224  and  _227
REMARK   82  A    between atoms: _227  and  _228
REMARK   83  A    between atoms: _234  and  _236
REMARK   84  A    between atoms: _236  and  _237
REMARK   85  A    between atoms: _236  and  _239
REMARK   86  A    between atoms: _239  and  _240
REMARK   87  A    between atoms: _245  and  _246
REMARK   88  A    between atoms: _248  and  _250
REMARK   89  A    between atoms: _250  and  _251
REMARK   90  A    between atoms: _250  and  _253
REMARK   91  A    between atoms: _253  and  _254
REMARK   92  A    between atoms: _257  and  _259
REMARK   93  A    between atoms: _259  and  _260
REMARK   94  A    between atoms: _259  and  _262
REMARK   95  A    between atoms: _262  and  _263
REMARK   96  A    between atoms: _263  and  _264
REMARK   97  A    between atoms: _264  and  _265
REMARK   98  A    between atoms: _274  and  _276
REMARK   99  A    between atoms: _276  and  _277
REMARK  100  A    between atoms: _276  and  _279
REMARK  101  A    between atoms: _279  and  _280
REMARK  102  A    between atoms: _290  and  _292
REMARK  103  A    between atoms: _292  and  _293
REMARK  104  A    between atoms: _292  and  _295
REMARK  105  A    between atoms: _295  and  _296
REMARK  106  A    between atoms: _301  and  _303
REMARK  107  A    between atoms: _303  and  _304
REMARK  108  A    between atoms: _303  and  _306
REMARK  109  A    between atoms: _306  and  _307
REMARK  110  A    between atoms: _311  and  ZN_433
REMARK  111  A    between atoms: _312  and  _314
REMARK  112  A    between atoms: _314  and  _315
REMARK  113  A    between atoms: _314  and  _317
REMARK  114  A    between atoms: _317  and  _318
REMARK  115  A    between atoms: _321  and  _323
REMARK  116  A    between atoms: _323  and  _324
REMARK  117  A    between atoms: _326  and  _328
REMARK  118  A    between atoms: _328  and  _329
REMARK  119  A    between atoms: _328  and  _331
REMARK  120  A    between atoms: _331  and  _332
REMARK  121  A    between atoms: _335  and  _337
REMARK  122  A    between atoms: _337  and  _338
REMARK  123  A    between atoms: _340  and  _342
REMARK  124  A    between atoms: _342  and  _343
REMARK  125  A    between atoms: _342  and  _345
REMARK  126  A    between atoms: _345  and  _346
REMARK  127  A    between atoms: _349  and  _351
REMARK  128  A    between atoms: _351  and  _352
REMARK  129  A    between atoms: _355  and  _357
REMARK  130  A    between atoms: _357  and  _358
REMARK  131  A    between atoms: _357  and  _360
REMARK  132  A    between atoms: _360  and  _361
REMARK  133  A    between atoms: _366  and  _367
REMARK  134  A    between atoms: _369  and  _371
REMARK  135  A    between atoms: _371  and  _372
REMARK  136  A    between atoms: _371  and  _374
REMARK  137  A    between atoms: _374  and  _375
REMARK  138  A    between atoms: _378  and  _380
REMARK  139  A    between atoms: _380  and  _381
REMARK  140  A    between atoms: _380  and  _383
REMARK  141  A    between atoms: _383  and  _384
REMARK  142  A    between atoms: _387  and  _389
REMARK  143  A    between atoms: _389  and  _390
REMARK  144  A    between atoms: _389  and  _392
REMARK  145  A    between atoms: _392  and  _393
REMARK  146  A    between atoms: _393  and  _394
REMARK  147  A    between atoms: _397  and  _399
REMARK  148  A    between atoms: _399  and  _400
REMARK  149  A    between atoms: _399  and  _402
REMARK  150  A    between atoms: _402  and  _403
REMARK  151  A    between atoms: _403  and  _404
REMARK  152  A    between atoms: _404  and  _405
REMARK  153  A    between atoms: _414  and  _416
REMARK  154  A    between atoms: _416  and  _417
REMARK  155  A    between atoms: _419  and  _421
REMARK  156  A    between atoms: _421  and  _422
REMARK  157  A    between atoms: _421  and  _424
REMARK  158  A    between atoms: _424  and  _425
REMARK  159  A    between atoms: _428  and  _430
REMARK  160  A    between atoms: _430  and  _431
REMARK                            x       y       z     vdW  Elec       q    Type
REMARK                         _______ _______ _______ _____ _____    ______ ____
ROOT
ATOM      1  CA  GLU A   1      44.227  60.029   9.581  0.00  0.00    +0.134 C 
ENDROOT
BRANCH   1   2
ATOM      2  N   GLU A   1      43.639  58.936  10.393  0.00  0.00    -0.239 NA
ATOM      3  H   GLU A   1      43.293  59.144  11.351  0.00  0.00    +0.142 HD
ENDBRANCH   1   2
BRANCH   1   4
ATOM      4  C   GLU A   1      45.706  60.178   9.903  0.00  0.00    +0.224 C 
ATOM      5  O   GLU A   1      46.092  60.776  10.921  0.00  0.00    -0.287 OA
ENDBRANCH   1   4
BRANCH   1   6
ATOM      6  CB  GLU A   1      43.473  61.346   9.809  0.00  0.00    +0.037 C 
BRANCH   6   7
ATOM      7  CG  GLU A   1      41.975  61.254   9.478  0.00  0.00    +0.116 C 
BRANCH   7   8
ATOM      8  CD  GLU A   1      41.123  60.755  10.647  0.00  0.00    +0.365 C 
ATOM      9  OE2 GLU A   1      41.671  60.543  11.755  0.00  0.00    -0.246 OA
ATOM     10  OE1 GLU A   1      39.895  60.605  10.465  0.00  0.00    -0.246 OA
ENDBRANCH   7   8
ENDBRANCH   6   7
ENDBRANCH   1   6
TORSDOF 5
REMARK  Name = ../refined-set-2016/3ejq/3ejq_pocket.pdb
REMARK  160 active torsions:
REMARK  status: ('A' for Active; 'I' for Inactive)
REMARK    1  A    between atoms: _1  and  _3
REMARK    2  A    between atoms: _14  and  _17
REMARK    3  A    between atoms: _17  and  _18
REMARK    4  A    between atoms: _25  and  _26
REMARK    5  A    between atoms: _33  and  _34
REMARK    6  A    between atoms: _39  and  _41
REMARK    7  A    between atoms: _41  and  _42
REMARK    8  A    between atoms: _44  and  _46
REMARK    9  A    between atoms: _46  and  _47
REMARK   10  A    between atoms: _46  and  _49
REMARK   11  A    between atoms: _49  and  _50
REMARK   12  A    between atoms: _60  and  _62
REMARK   13  A    between atoms: _62  and  _63
REMARK   14  A    between atoms: _62  and  _65
REMARK   15  A    between atoms: _65  and  _66
REMARK   16  A    between atoms: _69  and  _71
REMARK   17  A    between atoms: _71  and  _72
REMARK   18  A    between atoms: _71  and  _74
REMARK   19  A    between atoms: _74  and  _75
REMARK   20  A    between atoms: _80  and  _81
REMARK   21  A    between atoms: _83  and  _85
REMARK   22  A    between atoms: _85  and  _86
REMARK   23  A    between atoms: _85  and  _88
REMARK   24  A    between atoms: _88  and  _89
REMARK   25  A    between atoms: _89  and  _90
REMARK   26  A    between atoms: _93  and  _95
REMARK   27  A    between atoms: _95  and  _96
REMARK   28  A    between atoms: _95  and  _98
REMARK   29  A    between atoms: _98  and  _99
REMARK   30  A    between atoms: _99  and  _100
REMARK   31  A    between atoms: _102  and  _104
REMARK   32  A    between atoms: _104  and  _105
REMARK   33  A    between atoms: _104  and  _107
REMARK   34  A    between atoms: _107  and  _108
REMARK   35  A    between atoms: _111  and  _113
REMARK   36  A    between atoms: _113  and  _114
REMARK   37  A    between atoms: _113  and  _116
REMARK   38  A    between atoms: _116  and  _117
REMARK   39  A    between atoms: _117  and  _119
REMARK   40  A    between atoms: _119  and  ZN_433
REMARK   41  A    between atoms: _121  and  _122
REMARK   42  A    between atoms: _127  and  _129
REMARK   43  A    between atoms: _129  and  _130
REMARK   44  A    between atoms: _129  and  _132
REMARK   45  A    between atoms: _132  and  _133
REMARK   46  A    between atoms: _139  and  _141
REMARK   47  A    between atoms: _141  and  _142
REMARK   48  A    between atoms: _141  and  _144
REMARK   49  A    between atoms: _144  and  _145
REMARK   50  A    between atoms: _145  and  _146
REMARK   51  A    between atoms: _151  and  _153
REMARK   52  A    between atoms: _153  and  _154
REMARK   53  A    between atoms: _153  and  _156
REMARK   54  A    between atoms: _156  and  _157
REMARK   55  A    between atoms: _157  and  _158
REMARK   56  A    between atoms: _158  and  _159
REMARK   57  A    between atoms: _168  and  _170
REMARK   58  A    between atoms: _170  and  _171
REMARK   59  A    between atoms: _170  and  _173
REMARK   60  A    between atoms: _173  and  _174
REMARK   61  A    between atoms: _179  and  _180
REMARK   62  A    between atoms: _182  and  _184
REMARK   63  A    between atoms: _184  and  _185
REMARK   64  A    between atoms: _184  and  _187
REMARK   65  A    between atoms: _187  and  _188
REMARK   66  A    between atoms: _190  and  _192
REMARK   67  A    between atoms: _192  and  _193
REMARK   68  A    between atoms: _192  and  _195
REMARK   69  A    between atoms: _195  and  _196
REMARK   70  A    between atoms: _201  and  _202
REMARK   71  A    between atoms: _204  and  _206
REMARK   72  A    between atoms: _206  and  _207
REMARK   73  A    between atoms: _206  and  _209
REMARK   74  A    between atoms: _209  and  _210
REMARK   75  A    between atoms: _213  and  _215
REMARK   76  A    between atoms: _215  and  _216
REMARK   77  A    between atoms: _215  and  _218
REMARK   78  A    between atoms: _218  and  _219
REMARK   79  A    between atoms: _222  and  _224
REMARK   80  A    between atoms: _224  and  _225
REMARK   81  A    between atoms: _224  and  _227
REMARK   82  A    between atoms: _227  and  _228
REMARK   83  A    between atoms: _234  and  _236
REMARK   84  A    between atoms: _236  and  _237
REMARK   85  A    between atoms: _236  and  _239
REMARK   86  A    between atoms: _239  and  _240
REMARK   87  A    between atoms: _245  and  _246
REMARK   88  A    between atoms: _248  and  _250
REMARK   89  A    between atoms: _250  and  _251
REMARK   90  A    between atoms: _250  and  _253
REMARK   91  A    between atoms: _253  and  _254
REMARK   92  A    between atoms: _257  and  _259
REMARK   93  A    between atoms: _259  and  _260
REMARK   94  A    between atoms: _259  and  _262
REMARK   95  A    between atoms: _262  and  _263
REMARK   96  A    between atoms: _263  and  _264
REMARK   97  A    between atoms: _264  and  _265
REMARK   98  A    between atoms: _274  and  _276
REMARK   99  A    between atoms: _276  and  _277
REMARK  100  A    between atoms: _276  and  _279
REMARK  101  A    between atoms: _279  and  _280
REMARK  102  A    between atoms: _290  and  _292
REMARK  103  A    between atoms: _292  and  _293
REMARK  104  A    between atoms: _292  and  _295
REMARK  105  A    between atoms: _295  and  _296
REMARK  106  A    between atoms: _301  and  _303
REMARK  107  A    between atoms: _303  and  _304
REMARK  108  A    between atoms: _303  and  _306
REMARK  109  A    between atoms: _306  and  _307
REMARK  110  A    between atoms: _311  and  ZN_433
REMARK  111  A    between atoms: _312  and  _314
REMARK  112  A    between atoms: _314  and  _315
REMARK  113  A    between atoms: _314  and  _317
REMARK  114  A    between atoms: _317  and  _318
REMARK  115  A    between atoms: _321  and  _323
REMARK  116  A    between atoms: _323  and  _324
REMARK  117  A    between atoms: _326  and  _328
REMARK  118  A    between atoms: _328  and  _329
REMARK  119  A    between atoms: _328  and  _331
REMARK  120  A    between atoms: _331  and  _332
REMARK  121  A    between atoms: _335  and  _337
REMARK  122  A    between atoms: _337  and  _338
REMARK  123  A    between atoms: _340  and  _342
REMARK  124  A    between atoms: _342  and  _343
REMARK  125  A    between atoms: _342  and  _345
REMARK  126  A    between atoms: _345  and  _346
REMARK  127  A    between atoms: _349  and  _351
REMARK  128  A    between atoms: _351  and  _352
REMARK  129  A    between atoms: _355  and  _357
REMARK  130  A    between atoms: _357  and  _358
REMARK  131  A    between atoms: _357  and  _360
REMARK  132  A    between atoms: _360  and  _361
REMARK  133  A    between atoms: _366  and  _367
REMARK  134  A    between atoms: _369  and  _371
REMARK  135  A    between atoms: _371  and  _372
REMARK  136  A    between atoms: _371  and  _374
REMARK  137  A    between atoms: _374  and  _375
REMARK  138  A    between atoms: _378  and  _380
REMARK  139  A    between atoms: _380  and  _381
REMARK  140  A    between atoms: _380  and  _383
REMARK  141  A    between atoms: _383  and  _384
REMARK  142  A    between atoms: _387  and  _389
REMARK  143  A    between atoms: _389  and  _390
REMARK  144  A    between atoms: _389  and  _392
REMARK  145  A    between atoms: _392  and  _393
REMARK  146  A    between atoms: _393  and  _394
REMARK  147  A    between atoms: _397  and  _399
REMARK  148  A    between atoms: _399  and  _400
REMARK  149  A    between atoms: _399  and  _402
REMARK  150  A    between atoms: _402  and  _403
REMARK  151  A    between atoms: _403  and  _404
REMARK  152  A    between atoms: _404  and  _405
REMARK  153  A    between atoms: _414  and  _416
REMARK  154  A    between atoms: _416  and  _417
REMARK  155  A    between atoms: _419  and  _421
REMARK  156  A    between atoms: _421  and  _422
REMARK  157  A    between atoms: _421  and  _424
REMARK  158  A    between atoms: _424  and  _425
REMARK  159  A    between atoms: _428  and  _430
REMARK  160  A    between atoms: _430  and  _431
REMARK                            x       y       z     vdW  Elec       q    Type
REMARK                         _______ _______ _______ _____ _____    ______ ____
ROOT
ATOM      1  CA  MET A   1      40.037  59.532   4.679  0.00  0.00    +0.134 C 
ENDROOT
BRANCH   1   2
ATOM      2  N   MET A   1      41.162  60.414   5.067  0.00  0.00    -0.239 NA
ATOM      3  H   MET A   1      40.956  61.314   5.547  0.00  0.00    +0.142 HD
ENDBRANCH   1   2
BRANCH   1   4
ATOM      4  C   MET A   1      39.419  60.217   3.466  0.00  0.00    +0.224 C 
ATOM      5  O   MET A   1      38.660  61.184   3.600  0.00  0.00    -0.287 OA
ENDBRANCH   1   4
BRANCH   1   6
ATOM      6  CB  MET A   1      39.059  59.427   5.861  0.00  0.00    +0.037 C 
BRANCH   6   7
ATOM      7  CG  MET A   1      37.768  58.683   5.553  0.00  0.00    +0.059 C 
BRANCH   7   8
ATOM      8  SD  MET A   1      36.580  58.751   6.921  0.00  0.00    -0.139 S 
ATOM      9  CE  MET A   1      37.545  57.949   8.218  0.00  0.00    +0.069 C 
ENDBRANCH   7   8
ENDBRANCH   6   7
ENDBRANCH   1   6
TORSDOF 5
REMARK  Name = ../refined-set-2016/3ejq/3ejq_pocket.pdb
REMARK  160 active torsions:
REMARK  status: ('A' for Active; 'I' for Inactive)
REMARK    1  A    between atoms: _1  and  _3
REMARK    2  A    between atoms: _14  and  _17
REMARK    3  A    between atoms: _17  and  _18
REMARK    4  A    between atoms: _25  and  _26
REMARK    5  A    between atoms: _33  and  _34
REMARK    6  A    between atoms: _39  and  _41
REMARK    7  A    between atoms: _41  and  _42
REMARK    8  A    between atoms: _44  and  _46
REMARK    9  A    between atoms: _46  and  _47
REMARK   10  A    between atoms: _46  and  _49
REMARK   11  A    between atoms: _49  and  _50
REMARK   12  A    between atoms: _60  and  _62
REMARK   13  A    between atoms: _62  and  _63
REMARK   14  A    between atoms: _62  and  _65
REMARK   15  A    between atoms: _65  and  _66
REMARK   16  A    between atoms: _69  and  _71
REMARK   17  A    between atoms: _71  and  _72
REMARK   18  A    between atoms: _71  and  _74
REMARK   19  A    between atoms: _74  and  _75
REMARK   20  A    between atoms: _80  and  _81
REMARK   21  A    between atoms: _83  and  _85
REMARK   22  A    between atoms: _85  and  _86
REMARK   23  A    between atoms: _85  and  _88
REMARK   24  A    between atoms: _88  and  _89
REMARK   25  A    between atoms: _89  and  _90
REMARK   26  A    between atoms: _93  and  _95
REMARK   27  A    between atoms: _95  and  _96
REMARK   28  A    between atoms: _95  and  _98
REMARK   29  A    between atoms: _98  and  _99
REMARK   30  A    between atoms: _99  and  _100
REMARK   31  A    between atoms: _102  and  _104
REMARK   32  A    between atoms: _104  and  _105
REMARK   33  A    between atoms: _104  and  _107
REMARK   34  A    between atoms: _107  and  _108
REMARK   35  A    between atoms: _111  and  _113
REMARK   36  A    between atoms: _113  and  _114
REMARK   37  A    between atoms: _113  and  _116
REMARK   38  A    between atoms: _116  and  _117
REMARK   39  A    between atoms: _117  and  _119
REMARK   40  A    between atoms: _119  and  ZN_433
REMARK   41  A    between atoms: _121  and  _122
REMARK   42  A    between atoms: _127  and  _129
REMARK   43  A    between atoms: _129  and  _130
REMARK   44  A    between atoms: _129  and  _132
REMARK   45  A    between atoms: _132  and  _133
REMARK   46  A    between atoms: _139  and  _141
REMARK   47  A    between atoms: _141  and  _142
REMARK   48  A    between atoms: _141  and  _144
REMARK   49  A    between atoms: _144  and  _145
REMARK   50  A    between atoms: _145  and  _146
REMARK   51  A    between atoms: _151  and  _153
REMARK   52  A    between atoms: _153  and  _154
REMARK   53  A    between atoms: _153  and  _156
REMARK   54  A    between atoms: _156  and  _157
REMARK   55  A    between atoms: _157  and  _158
REMARK   56  A    between atoms: _158  and  _159
REMARK   57  A    between atoms: _168  and  _170
REMARK   58  A    between atoms: _170  and  _171
REMARK   59  A    between atoms: _170  and  _173
REMARK   60  A    between atoms: _173  and  _174
REMARK   61  A    between atoms: _179  and  _180
REMARK   62  A    between atoms: _182  and  _184
REMARK   63  A    between atoms: _184  and  _185
REMARK   64  A    between atoms: _184  and  _187
REMARK   65  A    between atoms: _187  and  _188
REMARK   66  A    between atoms: _190  and  _192
REMARK   67  A    between atoms: _192  and  _193
REMARK   68  A    between atoms: _192  and  _195
REMARK   69  A    between atoms: _195  and  _196
REMARK   70  A    between atoms: _201  and  _202
REMARK   71  A    between atoms: _204  and  _206
REMARK   72  A    between atoms: _206  and  _207
REMARK   73  A    between atoms: _206  and  _209
REMARK   74  A    between atoms: _209  and  _210
REMARK   75  A    between atoms: _213  and  _215
REMARK   76  A    between atoms: _215  and  _216
REMARK   77  A    between atoms: _215  and  _218
REMARK   78  A    between atoms: _218  and  _219
REMARK   79  A    between atoms: _222  and  _224
REMARK   80  A    between atoms: _224  and  _225
REMARK   81  A    between atoms: _224  and  _227
REMARK   82  A    between atoms: _227  and  _228
REMARK   83  A    between atoms: _234  and  _236
REMARK   84  A    between atoms: _236  and  _237
REMARK   85  A    between atoms: _236  and  _239
REMARK   86  A    between atoms: _239  and  _240
REMARK   87  A    between atoms: _245  and  _246
REMARK   88  A    between atoms: _248  and  _250
REMARK   89  A    between atoms: _250  and  _251
REMARK   90  A    between atoms: _250  and  _253
REMARK   91  A    between atoms: _253  and  _254
REMARK   92  A    between atoms: _257  and  _259
REMARK   93  A    between atoms: _259  and  _260
REMARK   94  A    between atoms: _259  and  _262
REMARK   95  A    between atoms: _262  and  _263
REMARK   96  A    between atoms: _263  and  _264
REMARK   97  A    between atoms: _264  and  _265
REMARK   98  A    between atoms: _274  and  _276
REMARK   99  A    between atoms: _276  and  _277
REMARK  100  A    between atoms: _276  and  _279
REMARK  101  A    between atoms: _279  and  _280
REMARK  102  A    between atoms: _290  and  _292
REMARK  103  A    between atoms: _292  and  _293
REMARK  104  A    between atoms: _292  and  _295
REMARK  105  A    between atoms: _295  and  _296
REMARK  106  A    between atoms: _301  and  _303
REMARK  107  A    between atoms: _303  and  _304
REMARK  108  A    between atoms: _303  and  _306
REMARK  109  A    between atoms: _306  and  _307
REMARK  110  A    between atoms: _311  and  ZN_433
REMARK  111  A    between atoms: _312  and  _314
REMARK  112  A    between atoms: _314  and  _315
REMARK  113  A    between atoms: _314  and  _317
REMARK  114  A    between atoms: _317  and  _318
REMARK  115  A    between atoms: _321  and  _323
REMARK  116  A    between atoms: _323  and  _324
REMARK  117  A    between atoms: _326  and  _328
REMARK  118  A    between atoms: _328  and  _329
REMARK  119  A    between atoms: _328  and  _331
REMARK  120  A    between atoms: _331  and  _332
REMARK  121  A    between atoms: _335  and  _337
REMARK  122  A    between atoms: _337  and  _338
REMARK  123  A    between atoms: _340  and  _342
REMARK  124  A    between atoms: _342  and  _343
REMARK  125  A    between atoms: _342  and  _345
REMARK  126  A    between atoms: _345  and  _346
REMARK  127  A    between atoms: _349  and  _351
REMARK  128  A    between atoms: _351  and  _352
REMARK  129  A    between atoms: _355  and  _357
REMARK  130  A    between atoms: _357  and  _358
REMARK  131  A    between atoms: _357  and  _360
REMARK  132  A    between atoms: _360  and  _361
REMARK  133  A    between atoms: _366  and  _367
REMARK  134  A    between atoms: _369  and  _371
REMARK  135  A    between atoms: _371  and  _372
REMARK  136  A    between atoms: _371  and  _374
REMARK  137  A    between atoms: _374  and  _375
REMARK  138  A    between atoms: _378  and  _380
REMARK  139  A    between atoms: _380  and  _381
REMARK  140  A    between atoms: _380  and  _383
REMARK  141  A    between atoms: _383  and  _384
REMARK  142  A    between atoms: _387  and  _389
REMARK  143  A    between atoms: _389  and  _390
REMARK  144  A    between atoms: _389  and  _392
REMARK  145  A    between atoms: _392  and  _393
REMARK  146  A    between atoms: _393  and  _394
REMARK  147  A    between atoms: _397  and  _399
REMARK  148  A    between atoms: _399  and  _400
REMARK  149  A    between atoms: _399  and  _402
REMARK  150  A    between atoms: _402  and  _403
REMARK  151  A    between atoms: _403  and  _404
REMARK  152  A    between atoms: _404  and  _405
REMARK  153  A    between atoms: _414  and  _416
REMARK  154  A    between atoms: _416  and  _417
REMARK  155  A    between atoms: _419  and  _421
REMARK  156  A    between atoms: _421  and  _422
REMARK  157  A    between atoms: _421  and  _424
REMARK  158  A    between atoms: _424  and  _425
REMARK  159  A    between atoms: _428  and  _430
REMARK  160  A    between atoms: _430  and  _431
REMARK                            x       y       z     vdW  Elec       q    Type
REMARK                         _______ _______ _______ _____ _____    ______ ____
ROOT
ATOM      1  CA  ARG A   2      27.351  56.759   4.061  0.00  0.00    +0.137 C 
ENDROOT
BRANCH   1   4
ATOM      2  C   GLN A   1      27.863  54.878   5.474  0.00  0.00    +0.238 C 
ATOM      3  O   GLN A   1      26.657  54.670   5.630  0.00  0.00    -0.274 OA
ATOM      4  N   ARG A   2      28.316  55.837   4.654  0.00  0.00    -0.298 N 
ATOM      5  H   ARG A   2      29.331  55.922   4.445  0.00  0.00    +0.150 HD
BRANCH   2   6
ATOM      6  CA  GLN A   1      28.878  54.093   6.317  0.00  0.00    +0.145 C 
BRANCH   6   7
ATOM      7  N   GLN A   1      30.025  53.602   5.534  0.00  0.00    -0.238 NA
ATOM      8  H   GLN A   1      30.499  54.233   4.857  0.00  0.00    +0.142 HD
ENDBRANCH   6   7
BRANCH   6   9
ATOM      9  CB  GLN A   1      29.368  54.951   7.499  0.00  0.00    +0.036 C 
BRANCH   9  10
ATOM     10  CG  GLN A   1      28.366  56.015   8.057  0.00  0.00    +0.087 C 
BRANCH  10  11
ATOM     11  CD  GLN A   1      27.061  55.469   8.611  0.00  0.00    +0.219 C 
ATOM     12  OE1 GLN A   1      26.972  54.296   8.976  0.00  0.00    -0.275 OA
ATOM     13  NE2 GLN A   1      26.023  56.324   8.636  0.00  0.00    -0.329 N 
ATOM     14 HE21 GLN A   1      25.093  56.004   8.975  0.00  0.00    +0.145 HD
ATOM     15 HE22 GLN A   1      26.150  57.306   8.317  0.00  0.00    +0.145 HD
ENDBRANCH  10  11
ENDBRANCH   9  10
ENDBRANCH   6   9
ENDBRANCH   2   6
ENDBRANCH   1   4
BRANCH   1  16
ATOM     16  C   ARG A   2      26.803  56.218   2.764  0.00  0.00    +0.227 C 
ATOM     17  O   ARG A   2      27.338  56.488   1.662  0.00  0.00    -0.286 OA
ENDBRANCH   1  16
BRANCH   1  18
ATOM     18  CB  ARG A   2      27.931  58.155   3.863  0.00  0.00    +0.031 C 
BRANCH  18  19
ATOM     19  CG  ARG A   2      28.178  58.875   5.147  0.00  0.00    +0.045 C 
BRANCH  19  20
ATOM     20  CD  ARG A   2      28.404  60.374   4.926  0.00  0.00    +0.174 C 
BRANCH  20  21
ATOM     21  NE  ARG A   2      28.676  61.049   6.198  0.00  0.00    -0.265 N 
ATOM     22  CZ  ARG A   2      27.740  61.512   7.024  0.00  0.00    +0.342 C 
ATOM     23  NH2 ARG A   2      28.096  62.061   8.173  0.00  0.00    -0.292 N 
ATOM     24 HH21 ARG A   2      27.370  62.425   8.823  0.00  0.00    +0.255 HD
ATOM     25 HH22 ARG A   2      29.102  62.129   8.427  0.00  0.00    +0.255 HD
ATOM     26  NH1 ARG A   2      26.445  61.435   6.691  0.00  0.00    -0.292 N 
ATOM     27 HH11 ARG A   2      25.719  61.798   7.340  0.00  0.00    +0.255 HD
ATOM     28 HH12 ARG A   2      26.166  61.012   5.783  0.00  0.00    +0.255 HD
ATOM     29  HE  ARG A   2      29.670  61.175   6.475  0.00  0.00    +0.259 HD
ENDBRANCH  20  21
ENDBRANCH  19  20
ENDBRANCH  18  19
ENDBRANCH   1  18
TORSDOF 11
REMARK  Name = ../refined-set-2016/3ejq/3ejq_pocket.pdb
REMARK  160 active torsions:
REMARK  status: ('A' for Active; 'I' for Inactive)
REMARK    1  A    between atoms: _1  and  _3
REMARK    2  A    between atoms: _14  and  _17
REMARK    3  A    between atoms: _17  and  _18
REMARK    4  A    between atoms: _25  and  _26
REMARK    5  A    between atoms: _33  and  _34
REMARK    6  A    between atoms: _39  and  _41
REMARK    7  A    between atoms: _41  and  _42
REMARK    8  A    between atoms: _44  and  _46
REMARK    9  A    between atoms: _46  and  _47
REMARK   10  A    between atoms: _46  and  _49
REMARK   11  A    between atoms: _49  and  _50
REMARK   12  A    between atoms: _60  and  _62
REMARK   13  A    between atoms: _62  and  _63
REMARK   14  A    between atoms: _62  and  _65
REMARK   15  A    between atoms: _65  and  _66
REMARK   16  A    between atoms: _69  and  _71
REMARK   17  A    between atoms: _71  and  _72
REMARK   18  A    between atoms: _71  and  _74
REMARK   19  A    between atoms: _74  and  _75
REMARK   20  A    between atoms: _80  and  _81
REMARK   21  A    between atoms: _83  and  _85
REMARK   22  A    between atoms: _85  and  _86
REMARK   23  A    between atoms: _85  and  _88
REMARK   24  A    between atoms: _88  and  _89
REMARK   25  A    between atoms: _89  and  _90
REMARK   26  A    between atoms: _93  and  _95
REMARK   27  A    between atoms: _95  and  _96
REMARK   28  A    between atoms: _95  and  _98
REMARK   29  A    between atoms: _98  and  _99
REMARK   30  A    between atoms: _99  and  _100
REMARK   31  A    between atoms: _102  and  _104
REMARK   32  A    between atoms: _104  and  _105
REMARK   33  A    between atoms: _104  and  _107
REMARK   34  A    between atoms: _107  and  _108
REMARK   35  A    between atoms: _111  and  _113
REMARK   36  A    between atoms: _113  and  _114
REMARK   37  A    between atoms: _113  and  _116
REMARK   38  A    between atoms: _116  and  _117
REMARK   39  A    between atoms: _117  and  _119
REMARK   40  A    between atoms: _119  and  ZN_433
REMARK   41  A    between atoms: _121  and  _122
REMARK   42  A    between atoms: _127  and  _129
REMARK   43  A    between atoms: _129  and  _130
REMARK   44  A    between atoms: _129  and  _132
REMARK   45  A    between atoms: _132  and  _133
REMARK   46  A    between atoms: _139  and  _141
REMARK   47  A    between atoms: _141  and  _142
REMARK   48  A    between atoms: _141  and  _144
REMARK   49  A    between atoms: _144  and  _145
REMARK   50  A    between atoms: _145  and  _146
REMARK   51  A    between atoms: _151  and  _153
REMARK   52  A    between atoms: _153  and  _154
REMARK   53  A    between atoms: _153  and  _156
REMARK   54  A    between atoms: _156  and  _157
REMARK   55  A    between atoms: _157  and  _158
REMARK   56  A    between atoms: _158  and  _159
REMARK   57  A    between atoms: _168  and  _170
REMARK   58  A    between atoms: _170  and  _171
REMARK   59  A    between atoms: _170  and  _173
REMARK   60  A    between atoms: _173  and  _174
REMARK   61  A    between atoms: _179  and  _180
REMARK   62  A    between atoms: _182  and  _184
REMARK   63  A    between atoms: _184  and  _185
REMARK   64  A    between atoms: _184  and  _187
REMARK   65  A    between atoms: _187  and  _188
REMARK   66  A    between atoms: _190  and  _192
REMARK   67  A    between atoms: _192  and  _193
REMARK   68  A    between atoms: _192  and  _195
REMARK   69  A    between atoms: _195  and  _196
REMARK   70  A    between atoms: _201  and  _202
REMARK   71  A    between atoms: _204  and  _206
REMARK   72  A    between atoms: _206  and  _207
REMARK   73  A    between atoms: _206  and  _209
REMARK   74  A    between atoms: _209  and  _210
REMARK   75  A    between atoms: _213  and  _215
REMARK   76  A    between atoms: _215  and  _216
REMARK   77  A    between atoms: _215  and  _218
REMARK   78  A    between atoms: _218  and  _219
REMARK   79  A    between atoms: _222  and  _224
REMARK   80  A    between atoms: _224  and  _225
REMARK   81  A    between atoms: _224  and  _227
REMARK   82  A    between atoms: _227  and  _228
REMARK   83  A    between atoms: _234  and  _236
REMARK   84  A    between atoms: _236  and  _237
REMARK   85  A    between atoms: _236  and  _239
REMARK   86  A    between atoms: _239  and  _240
REMARK   87  A    between atoms: _245  and  _246
REMARK   88  A    between atoms: _248  and  _250
REMARK   89  A    between atoms: _250  and  _251
REMARK   90  A    between atoms: _250  and  _253
REMARK   91  A    between atoms: _253  and  _254
REMARK   92  A    between atoms: _257  and  _259
REMARK   93  A    between atoms: _259  and  _260
REMARK   94  A    between atoms: _259  and  _262
REMARK   95  A    between atoms: _262  and  _263
REMARK   96  A    between atoms: _263  and  _264
REMARK   97  A    between atoms: _264  and  _265
REMARK   98  A    between atoms: _274  and  _276
REMARK   99  A    between atoms: _276  and  _277
REMARK  100  A    between atoms: _276  and  _279
REMARK  101  A    between atoms: _279  and  _280
REMARK  102  A    between atoms: _290  and  _292
REMARK  103  A    between atoms: _292  and  _293
REMARK  104  A    between atoms: _292  and  _295
REMARK  105  A    between atoms: _295  and  _296
REMARK  106  A    between atoms: _301  and  _303
REMARK  107  A    between atoms: _303  and  _304
REMARK  108  A    between atoms: _303  and  _306
REMARK  109  A    between atoms: _306  and  _307
REMARK  110  A    between atoms: _311  and  ZN_433
REMARK  111  A    between atoms: _312  and  _314
REMARK  112  A    between atoms: _314  and  _315
REMARK  113  A    between atoms: _314  and  _317
REMARK  114  A    between atoms: _317  and  _318
REMARK  115  A    between atoms: _321  and  _323
REMARK  116  A    between atoms: _323  and  _324
REMARK  117  A    between atoms: _326  and  _328
REMARK  118  A    between atoms: _328  and  _329
REMARK  119  A    between atoms: _328  and  _331
REMARK  120  A    between atoms: _331  and  _332
REMARK  121  A    between atoms: _335  and  _337
REMARK  122  A    between atoms: _337  and  _338
REMARK  123  A    between atoms: _340  and  _342
REMARK  124  A    between atoms: _342  and  _343
REMARK  125  A    between atoms: _342  and  _345
REMARK  126  A    between atoms: _345  and  _346
REMARK  127  A    between atoms: _349  and  _351
REMARK  128  A    between atoms: _351  and  _352
REMARK  129  A    between atoms: _355  and  _357
REMARK  130  A    between atoms: _357  and  _358
REMARK  131  A    between atoms: _357  and  _360
REMARK  132  A    between atoms: _360  and  _361
REMARK  133  A    between atoms: _366  and  _367
REMARK  134  A    between atoms: _369  and  _371
REMARK  135  A    between atoms: _371  and  _372
REMARK  136  A    between atoms: _371  and  _374
REMARK  137  A    between atoms: _374  and  _375
REMARK  138  A    between atoms: _378  and  _380
REMARK  139  A    between atoms: _380  and  _381
REMARK  140  A    between atoms: _380  and  _383
REMARK  141  A    between atoms: _383  and  _384
REMARK  142  A    between atoms: _387  and  _389
REMARK  143  A    between atoms: _389  and  _390
REMARK  144  A    between atoms: _389  and  _392
REMARK  145  A    between atoms: _392  and  _393
REMARK  146  A    between atoms: _393  and  _394
REMARK  147  A    between atoms: _397  and  _399
REMARK  148  A    between atoms: _399  and  _400
REMARK  149  A    between atoms: _399  and  _402
REMARK  150  A    between atoms: _402  and  _403
REMARK  151  A    between atoms: _403  and  _404
REMARK  152  A    between atoms: _404  and  _405
REMARK  153  A    between atoms: _414  and  _416
REMARK  154  A    between atoms: _416  and  _417
REMARK  155  A    between atoms: _419  and  _421
REMARK  156  A    between atoms: _421  and  _422
REMARK  157  A    between atoms: _421  and  _424
REMARK  158  A    between atoms: _424  and  _425
REMARK  159  A    between atoms: _428  and  _430
REMARK  160  A    between atoms: _430  and  _431
REMARK                            x       y       z     vdW  Elec       q    Type
REMARK                         _______ _______ _______ _____ _____    ______ ____
ROOT
ATOM      1  CA  SER A   2      25.279  58.200  11.465  0.00  0.00    +0.178 C 
ENDROOT
BRANCH   1   3
ATOM      2  C   TYR A   1      23.348  57.834  10.027  0.00  0.00    +0.239 C 
ATOM      3  N   SER A   2      24.019  57.536  11.134  0.00  0.00    -0.295 N 
ATOM      4  H   SER A   2      23.640  56.814  11.780  0.00  0.00    +0.150 HD
ATOM      5  O   TYR A   1      23.773  58.647   9.168  0.00  0.00    -0.274 OA
BRANCH   2   6
ATOM      6  CA  TYR A   1      21.996  57.132   9.830  0.00  0.00    +0.149 C 
BRANCH   6   7
ATOM      7  N   TYR A   1      21.928  55.820  10.474  0.00  0.00    -0.238 NA
ATOM      8  H   TYR A   1      21.367  55.712  11.343  0.00  0.00    +0.142 HD
ENDBRANCH   6   7
BRANCH   6   9
ATOM      9  CB  TYR A   1      20.813  57.994  10.312  0.00  0.00    +0.053 C 
BRANCH   9  10
ATOM     10  CG  TYR A   1      20.999  59.500  10.235  0.00  0.00    -0.020 A 
ATOM     11  CD2 TYR A   1      21.419  60.217  11.361  0.00  0.00    -0.001 A 
ATOM     12  CE2 TYR A   1      21.574  61.596  11.326  0.00  0.00    +0.036 A 
ATOM     13  CZ  TYR A   1      21.335  62.278  10.149  0.00  0.00    +0.134 A 
ATOM     14  CE1 TYR A   1      20.923  61.596   9.000  0.00  0.00    +0.036 A 
ATOM     15  CD1 TYR A   1      20.763  60.196   9.053  0.00  0.00    -0.001 A 
BRANCH  13  16
ATOM     16  OH  TYR A   1      21.508  63.655  10.148  0.00  0.00    -0.506 OA
ATOM     17  HH  TYR A   1      21.304  64.011   9.247  0.00  0.00    +0.292 HD
ENDBRANCH  13  16
ENDBRANCH   9  10
ENDBRANCH   6   9
ENDBRANCH   2   6
ENDBRANCH   1   3
BRANCH   1  18
ATOM     18  C   SER A   2      26.279  57.235  12.109  0.00  0.00    +0.243 C 
ATOM     19  O   SER A   2      25.910  56.109  12.515  0.00  0.00    -0.273 OA
ATOM     20  N   TYR A   3      27.544  57.662  12.177  0.00  0.00    -0.298 N 
ATOM     21  H   TYR A   3      27.807  58.549  11.702  0.00  0.00    +0.150 HD
BRANCH  20  22
ATOM     22  CA  TYR A   3      28.573  56.905  12.909  0.00  0.00    +0.141 C 
BRANCH  22  23
ATOM     23  C   TYR A   3      28.643  57.359  14.361  0.00  0.00    +0.227 C 
ATOM     24  O   TYR A   3      29.496  56.849  15.122  0.00  0.00    -0.286 OA
ENDBRANCH  22  23
BRANCH  22  25
ATOM     25  CB  TYR A   3      29.966  57.064  12.250  0.00  0.00    +0.054 C 
BRANCH  25  26
ATOM     26  CG  TYR A   3      30.354  58.524  12.051  0.00  0.00    -0.020 A 
ATOM     27  CD2 TYR A   3      30.746  59.333  13.131  0.00  0.00    -0.001 A 
ATOM     28  CE2 TYR A   3      31.072  60.678  12.952  0.00  0.00    +0.036 A 
ATOM     29  CZ  TYR A   3      31.011  61.222  11.681  0.00  0.00    +0.134 A 
ATOM     30  CE1 TYR A   3      30.621  60.462  10.603  0.00  0.00    +0.036 A 
ATOM     31  CD1 TYR A   3      30.298  59.110  10.791  0.00  0.00    -0.001 A 
BRANCH  29  32
ATOM     32  OH  TYR A   3      31.298  62.544  11.460  0.00  0.00    -0.506 OA
ATOM     33  HH  TYR A   3      31.563  62.970  12.313  0.00  0.00    +0.292 HD
ENDBRANCH  29  32
ENDBRANCH  25  26
ENDBRANCH  22  25
ENDBRANCH  20  22
ENDBRANCH   1  18
BRANCH   1  34
ATOM     34  CB  SER A   2      25.013  59.374  12.418  0.00  0.00    +0.166 C 
BRANCH  34  35
ATOM     35  OG  SER A   2      26.226  60.012  12.828  0.00  0.00    -0.380 OA
ATOM     36  H   SER A   2      26.700  60.359  12.031  0.00  0.00    +0.211 HD
ENDBRANCH  34  35
ENDBRANCH   1  34
TORSDOF 14
REMARK  Name = ../refined-set-2016/3ejq/3ejq_pocket.pdb
REMARK  160 active torsions:
REMARK  status: ('A' for Active; 'I' for Inactive)
REMARK    1  A    between atoms: _1  and  _3
REMARK    2  A    between atoms: _14  and  _17
REMARK    3  A    between atoms: _17  and  _18
REMARK    4  A    between atoms: _25  and  _26
REMARK    5  A    between atoms: _33  and  _34
REMARK    6  A    between atoms: _39  and  _41
REMARK    7  A    between atoms: _41  and  _42
REMARK    8  A    between atoms: _44  and  _46
REMARK    9  A    between atoms: _46  and  _47
REMARK   10  A    between atoms: _46  and  _49
REMARK   11  A    between atoms: _49  and  _50
REMARK   12  A    between atoms: _60  and  _62
REMARK   13  A    between atoms: _62  and  _63
REMARK   14  A    between atoms: _62  and  _65
REMARK   15  A    between atoms: _65  and  _66
REMARK   16  A    between atoms: _69  and  _71
REMARK   17  A    between atoms: _71  and  _72
REMARK   18  A    between atoms: _71  and  _74
REMARK   19  A    between atoms: _74  and  _75
REMARK   20  A    between atoms: _80  and  _81
REMARK   21  A    between atoms: _83  and  _85
REMARK   22  A    between atoms: _85  and  _86
REMARK   23  A    between atoms: _85  and  _88
REMARK   24  A    between atoms: _88  and  _89
REMARK   25  A    between atoms: _89  and  _90
REMARK   26  A    between atoms: _93  and  _95
REMARK   27  A    between atoms: _95  and  _96
REMARK   28  A    between atoms: _95  and  _98
REMARK   29  A    between atoms: _98  and  _99
REMARK   30  A    between atoms: _99  and  _100
REMARK   31  A    between atoms: _102  and  _104
REMARK   32  A    between atoms: _104  and  _105
REMARK   33  A    between atoms: _104  and  _107
REMARK   34  A    between atoms: _107  and  _108
REMARK   35  A    between atoms: _111  and  _113
REMARK   36  A    between atoms: _113  and  _114
REMARK   37  A    between atoms: _113  and  _116
REMARK   38  A    between atoms: _116  and  _117
REMARK   39  A    between atoms: _117  and  _119
REMARK   40  A    between atoms: _119  and  ZN_433
REMARK   41  A    between atoms: _121  and  _122
REMARK   42  A    between atoms: _127  and  _129
REMARK   43  A    between atoms: _129  and  _130
REMARK   44  A    between atoms: _129  and  _132
REMARK   45  A    between atoms: _132  and  _133
REMARK   46  A    between atoms: _139  and  _141
REMARK   47  A    between atoms: _141  and  _142
REMARK   48  A    between atoms: _141  and  _144
REMARK   49  A    between atoms: _144  and  _145
REMARK   50  A    between atoms: _145  and  _146
REMARK   51  A    between atoms: _151  and  _153
REMARK   52  A    between atoms: _153  and  _154
REMARK   53  A    between atoms: _153  and  _156
REMARK   54  A    between atoms: _156  and  _157
REMARK   55  A    between atoms: _157  and  _158
REMARK   56  A    between atoms: _158  and  _159
REMARK   57  A    between atoms: _168  and  _170
REMARK   58  A    between atoms: _170  and  _171
REMARK   59  A    between atoms: _170  and  _173
REMARK   60  A    between atoms: _173  and  _174
REMARK   61  A    between atoms: _179  and  _180
REMARK   62  A    between atoms: _182  and  _184
REMARK   63  A    between atoms: _184  and  _185
REMARK   64  A    between atoms: _184  and  _187
REMARK   65  A    between atoms: _187  and  _188
REMARK   66  A    between atoms: _190  and  _192
REMARK   67  A    between atoms: _192  and  _193
REMARK   68  A    between atoms: _192  and  _195
REMARK   69  A    between atoms: _195  and  _196
REMARK   70  A    between atoms: _201  and  _202
REMARK   71  A    between atoms: _204  and  _206
REMARK   72  A    between atoms: _206  and  _207
REMARK   73  A    between atoms: _206  and  _209
REMARK   74  A    between atoms: _209  and  _210
REMARK   75  A    between atoms: _213  and  _215
REMARK   76  A    between atoms: _215  and  _216
REMARK   77  A    between atoms: _215  and  _218
REMARK   78  A    between atoms: _218  and  _219
REMARK   79  A    between atoms: _222  and  _224
REMARK   80  A    between atoms: _224  and  _225
REMARK   81  A    between atoms: _224  and  _227
REMARK   82  A    between atoms: _227  and  _228
REMARK   83  A    between atoms: _234  and  _236
REMARK   84  A    between atoms: _236  and  _237
REMARK   85  A    between atoms: _236  and  _239
REMARK   86  A    between atoms: _239  and  _240
REMARK   87  A    between atoms: _245  and  _246
REMARK   88  A    between atoms: _248  and  _250
REMARK   89  A    between atoms: _250  and  _251
REMARK   90  A    between atoms: _250  and  _253
REMARK   91  A    between atoms: _253  and  _254
REMARK   92  A    between atoms: _257  and  _259
REMARK   93  A    between atoms: _259  and  _260
REMARK   94  A    between atoms: _259  and  _262
REMARK   95  A    between atoms: _262  and  _263
REMARK   96  A    between atoms: _263  and  _264
REMARK   97  A    between atoms: _264  and  _265
REMARK   98  A    between atoms: _274  and  _276
REMARK   99  A    between atoms: _276  and  _277
REMARK  100  A    between atoms: _276  and  _279
REMARK  101  A    between atoms: _279  and  _280
REMARK  102  A    between atoms: _290  and  _292
REMARK  103  A    between atoms: _292  and  _293
REMARK  104  A    between atoms: _292  and  _295
REMARK  105  A    between atoms: _295  and  _296
REMARK  106  A    between atoms: _301  and  _303
REMARK  107  A    between atoms: _303  and  _304
REMARK  108  A    between atoms: _303  and  _306
REMARK  109  A    between atoms: _306  and  _307
REMARK  110  A    between atoms: _311  and  ZN_433
REMARK  111  A    between atoms: _312  and  _314
REMARK  112  A    between atoms: _314  and  _315
REMARK  113  A    between atoms: _314  and  _317
REMARK  114  A    between atoms: _317  and  _318
REMARK  115  A    between atoms: _321  and  _323
REMARK  116  A    between atoms: _323  and  _324
REMARK  117  A    between atoms: _326  and  _328
REMARK  118  A    between atoms: _328  and  _329
REMARK  119  A    between atoms: _328  and  _331
REMARK  120  A    between atoms: _331  and  _332
REMARK  121  A    between atoms: _335  and  _337
REMARK  122  A    between atoms: _337  and  _338
REMARK  123  A    between atoms: _340  and  _342
REMARK  124  A    between atoms: _342  and  _343
REMARK  125  A    between atoms: _342  and  _345
REMARK  126  A    between atoms: _345  and  _346
REMARK  127  A    between atoms: _349  and  _351
REMARK  128  A    between atoms: _351  and  _352
REMARK  129  A    between atoms: _355  and  _357
REMARK  130  A    between atoms: _357  and  _358
REMARK  131  A    between atoms: _357  and  _360
REMARK  132  A    between atoms: _360  and  _361
REMARK  133  A    between atoms: _366  and  _367
REMARK  134  A    between atoms: _369  and  _371
REMARK  135  A    between atoms: _371  and  _372
REMARK  136  A    between atoms: _371  and  _374
REMARK  137  A    between atoms: _374  and  _375
REMARK  138  A    between atoms: _378  and  _380
REMARK  139  A    between atoms: _380  and  _381
REMARK  140  A    between atoms: _380  and  _383
REMARK  141  A    between atoms: _383  and  _384
REMARK  142  A    between atoms: _387  and  _389
REMARK  143  A    between atoms: _389  and  _390
REMARK  144  A    between atoms: _389  and  _392
REMARK  145  A    between atoms: _392  and  _393
REMARK  146  A    between atoms: _393  and  _394
REMARK  147  A    between atoms: _397  and  _399
REMARK  148  A    between atoms: _399  and  _400
REMARK  149  A    between atoms: _399  and  _402
REMARK  150  A    between atoms: _402  and  _403
REMARK  151  A    between atoms: _403  and  _404
REMARK  152  A    between atoms: _404  and  _405
REMARK  153  A    between atoms: _414  and  _416
REMARK  154  A    between atoms: _416  and  _417
REMARK  155  A    between atoms: _419  and  _421
REMARK  156  A    between atoms: _421  and  _422
REMARK  157  A    between atoms: _421  and  _424
REMARK  158  A    between atoms: _424  and  _425
REMARK  159  A    between atoms: _428  and  _430
REMARK  160  A    between atoms: _430  and  _431
REMARK                            x       y       z     vdW  Elec       q    Type
REMARK                         _______ _______ _______ _____ _____    ______ ____
ROOT
ATOM      1  CA  ASP A   2      33.966  64.060  15.657  0.00  0.00    +0.160 C 
ENDROOT
BRANCH   1   4
ATOM      2  C   ASP A   1      33.331  61.946  16.690  0.00  0.00    +0.239 C 
ATOM      3  O   ASP A   1      34.524  61.612  16.899  0.00  0.00    -0.274 OA
ATOM      4  N   ASP A   2      32.970  63.115  16.170  0.00  0.00    -0.297 N 
ATOM      5  H   ASP A   2      31.961  63.364  16.126  0.00  0.00    +0.150 HD
BRANCH   2   6
ATOM      6  CA  ASP A   1      32.190  60.992  17.048  0.00  0.00    +0.156 C 
BRANCH   6   7
ATOM      7  N   ASP A   1      32.816  59.866  17.731  0.00  0.00    -0.238 NA
ATOM      8  H   ASP A   1      33.832  59.927  17.943  0.00  0.00    +0.142 HD
ENDBRANCH   6   7
BRANCH   6   9
ATOM      9  CB  ASP A   1      31.168  61.655  17.995  0.00  0.00    +0.140 C 
BRANCH   9  10
ATOM     10  CG  ASP A   1      30.033  62.398  17.273  0.00  0.00    +0.367 C 
ATOM     11  OD2 ASP A   1      29.000  62.622  17.961  0.00  0.00    -0.246 OA
ATOM     12  OD1 ASP A   1      30.165  62.793  16.089  0.00  0.00    -0.246 OA
ENDBRANCH   9  10
ENDBRANCH   6   9
ENDBRANCH   2   6
ENDBRANCH   1   4
BRANCH   1  13
ATOM     13  C   ASP A   2      34.863  64.556  16.778  0.00  0.00    +0.241 C 
ATOM     14  O   ASP A   2      34.366  65.012  17.811  0.00  0.00    -0.273 OA
ATOM     15  N   PHE A   3      36.174  64.463  16.577  0.00  0.00    -0.298 N 
ATOM     16  H   PHE A   3      36.518  63.992  15.716  0.00  0.00    +0.150 HD
BRANCH  15  17
ATOM     17  CA  PHE A   3      37.151  65.002  17.527  0.00  0.00    +0.141 C 
BRANCH  17  18
ATOM     18  C   PHE A   3      36.863  64.595  18.983  0.00  0.00    +0.227 C 
ATOM     19  O   PHE A   3      37.078  65.378  19.947  0.00  0.00    -0.286 OA
ENDBRANCH  17  18
BRANCH  17  20
ATOM     20  CB  PHE A   3      37.261  66.527  17.357  0.00  0.00    +0.054 C 
BRANCH  20  21
ATOM     21  CG  PHE A   3      37.839  66.931  16.034  0.00  0.00    -0.020 A 
ATOM     22  CD2 PHE A   3      39.218  66.918  15.835  0.00  0.00    -0.004 A 
ATOM     23  CE2 PHE A   3      39.767  67.307  14.590  0.00  0.00    -0.000 A 
ATOM     24  CZ  PHE A   3      38.922  67.714  13.565  0.00  0.00    -0.000 A 
ATOM     25  CE1 PHE A   3      37.547  67.715  13.757  0.00  0.00    -0.000 A 
ATOM     26  CD1 PHE A   3      37.008  67.342  14.990  0.00  0.00    -0.004 A 
ENDBRANCH  20  21
ENDBRANCH  17  20
ENDBRANCH  15  17
ENDBRANCH   1  13
BRANCH   1  27
ATOM     27  CB  ASP A   2      33.269  65.261  15.021  0.00  0.00    +0.143 C 
BRANCH  27  28
ATOM     28  CG  ASP A   2      32.523  64.914  13.764  0.00  0.00    +0.367 C 
ATOM     29  OD2 ASP A   2      32.413  63.706  13.432  0.00  0.00    -0.246 OA
ATOM     30  OD1 ASP A   2      32.087  65.873  13.075  0.00  0.00    -0.246 OA
ENDBRANCH  27  28
ENDBRANCH   1  27
TORSDOF 12
REMARK  Name = ../refined-set-2016/3ejq/3ejq_pocket.pdb
REMARK  160 active torsions:
REMARK  status: ('A' for Active; 'I' for Inactive)
REMARK    1  A    between atoms: _1  and  _3
REMARK    2  A    between atoms: _14  and  _17
REMARK    3  A    between atoms: _17  and  _18
REMARK    4  A    between atoms: _25  and  _26
REMARK    5  A    between atoms: _33  and  _34
REMARK    6  A    between atoms: _39  and  _41
REMARK    7  A    between atoms: _41  and  _42
REMARK    8  A    between atoms: _44  and  _46
REMARK    9  A    between atoms: _46  and  _47
REMARK   10  A    between atoms: _46  and  _49
REMARK   11  A    between atoms: _49  and  _50
REMARK   12  A    between atoms: _60  and  _62
REMARK   13  A    between atoms: _62  and  _63
REMARK   14  A    between atoms: _62  and  _65
REMARK   15  A    between atoms: _65  and  _66
REMARK   16  A    between atoms: _69  and  _71
REMARK   17  A    between atoms: _71  and  _72
REMARK   18  A    between atoms: _71  and  _74
REMARK   19  A    between atoms: _74  and  _75
REMARK   20  A    between atoms: _80  and  _81
REMARK   21  A    between atoms: _83  and  _85
REMARK   22  A    between atoms: _85  and  _86
REMARK   23  A    between atoms: _85  and  _88
REMARK   24  A    between atoms: _88  and  _89
REMARK   25  A    between atoms: _89  and  _90
REMARK   26  A    between atoms: _93  and  _95
REMARK   27  A    between atoms: _95  and  _96
REMARK   28  A    between atoms: _95  and  _98
REMARK   29  A    between atoms: _98  and  _99
REMARK   30  A    between atoms: _99  and  _100
REMARK   31  A    between atoms: _102  and  _104
REMARK   32  A    between atoms: _104  and  _105
REMARK   33  A    between atoms: _104  and  _107
REMARK   34  A    between atoms: _107  and  _108
REMARK   35  A    between atoms: _111  and  _113
REMARK   36  A    between atoms: _113  and  _114
REMARK   37  A    between atoms: _113  and  _116
REMARK   38  A    between atoms: _116  and  _117
REMARK   39  A    between atoms: _117  and  _119
REMARK   40  A    between atoms: _119  and  ZN_433
REMARK   41  A    between atoms: _121  and  _122
REMARK   42  A    between atoms: _127  and  _129
REMARK   43  A    between atoms: _129  and  _130
REMARK   44  A    between atoms: _129  and  _132
REMARK   45  A    between atoms: _132  and  _133
REMARK   46  A    between atoms: _139  and  _141
REMARK   47  A    between atoms: _141  and  _142
REMARK   48  A    between atoms: _141  and  _144
REMARK   49  A    between atoms: _144  and  _145
REMARK   50  A    between atoms: _145  and  _146
REMARK   51  A    between atoms: _151  and  _153
REMARK   52  A    between atoms: _153  and  _154
REMARK   53  A    between atoms: _153  and  _156
REMARK   54  A    between atoms: _156  and  _157
REMARK   55  A    between atoms: _157  and  _158
REMARK   56  A    between atoms: _158  and  _159
REMARK   57  A    between atoms: _168  and  _170
REMARK   58  A    between atoms: _170  and  _171
REMARK   59  A    between atoms: _170  and  _173
REMARK   60  A    between atoms: _173  and  _174
REMARK   61  A    between atoms: _179  and  _180
REMARK   62  A    between atoms: _182  and  _184
REMARK   63  A    between atoms: _184  and  _185
REMARK   64  A    between atoms: _184  and  _187
REMARK   65  A    between atoms: _187  and  _188
REMARK   66  A    between atoms: _190  and  _192
REMARK   67  A    between atoms: _192  and  _193
REMARK   68  A    between atoms: _192  and  _195
REMARK   69  A    between atoms: _195  and  _196
REMARK   70  A    between atoms: _201  and  _202
REMARK   71  A    between atoms: _204  and  _206
REMARK   72  A    between atoms: _206  and  _207
REMARK   73  A    between atoms: _206  and  _209
REMARK   74  A    between atoms: _209  and  _210
REMARK   75  A    between atoms: _213  and  _215
REMARK   76  A    between atoms: _215  and  _216
REMARK   77  A    between atoms: _215  and  _218
REMARK   78  A    between atoms: _218  and  _219
REMARK   79  A    between atoms: _222  and  _224
REMARK   80  A    between atoms: _224  and  _225
REMARK   81  A    between atoms: _224  and  _227
REMARK   82  A    between atoms: _227  and  _228
REMARK   83  A    between atoms: _234  and  _236
REMARK   84  A    between atoms: _236  and  _237
REMARK   85  A    between atoms: _236  and  _239
REMARK   86  A    between atoms: _239  and  _240
REMARK   87  A    between atoms: _245  and  _246
REMARK   88  A    between atoms: _248  and  _250
REMARK   89  A    between atoms: _250  and  _251
REMARK   90  A    between atoms: _250  and  _253
REMARK   91  A    between atoms: _253  and  _254
REMARK   92  A    between atoms: _257  and  _259
REMARK   93  A    between atoms: _259  and  _260
REMARK   94  A    between atoms: _259  and  _262
REMARK   95  A    between atoms: _262  and  _263
REMARK   96  A    between atoms: _263  and  _264
REMARK   97  A    between atoms: _264  and  _265
REMARK   98  A    between atoms: _274  and  _276
REMARK   99  A    between atoms: _276  and  _277
REMARK  100  A    between atoms: _276  and  _279
REMARK  101  A    between atoms: _279  and  _280
REMARK  102  A    between atoms: _290  and  _292
REMARK  103  A    between atoms: _292  and  _293
REMARK  104  A    between atoms: _292  and  _295
REMARK  105  A    between atoms: _295  and  _296
REMARK  106  A    between atoms: _301  and  _303
REMARK  107  A    between atoms: _303  and  _304
REMARK  108  A    between atoms: _303  and  _306
REMARK  109  A    between atoms: _306  and  _307
REMARK  110  A    between atoms: _311  and  ZN_433
REMARK  111  A    between atoms: _312  and  _314
REMARK  112  A    between atoms: _314  and  _315
REMARK  113  A    between atoms: _314  and  _317
REMARK  114  A    between atoms: _317  and  _318
REMARK  115  A    between atoms: _321  and  _323
REMARK  116  A    between atoms: _323  and  _324
REMARK  117  A    between atoms: _326  and  _328
REMARK  118  A    between atoms: _328  and  _329
REMARK  119  A    between atoms: _328  and  _331
REMARK  120  A    between atoms: _331  and  _332
REMARK  121  A    between atoms: _335  and  _337
REMARK  122  A    between atoms: _337  and  _338
REMARK  123  A    between atoms: _340  and  _342
REMARK  124  A    between atoms: _342  and  _343
REMARK  125  A    between atoms: _342  and  _345
REMARK  126  A    between atoms: _345  and  _346
REMARK  127  A    between atoms: _349  and  _351
REMARK  128  A    between atoms: _351  and  _352
REMARK  129  A    between atoms: _355  and  _357
REMARK  130  A    between atoms: _357  and  _358
REMARK  131  A    between atoms: _357  and  _360
REMARK  132  A    between atoms: _360  and  _361
REMARK  133  A    between atoms: _366  and  _367
REMARK  134  A    between atoms: _369  and  _371
REMARK  135  A    between atoms: _371  and  _372
REMARK  136  A    between atoms: _371  and  _374
REMARK  137  A    between atoms: _374  and  _375
REMARK  138  A    between atoms: _378  and  _380
REMARK  139  A    between atoms: _380  and  _381
REMARK  140  A    between atoms: _380  and  _383
REMARK  141  A    between atoms: _383  and  _384
REMARK  142  A    between atoms: _387  and  _389
REMARK  143  A    between atoms: _389  and  _390
REMARK  144  A    between atoms: _389  and  _392
REMARK  145  A    between atoms: _392  and  _393
REMARK  146  A    between atoms: _393  and  _394
REMARK  147  A    between atoms: _397  and  _399
REMARK  148  A    between atoms: _399  and  _400
REMARK  149  A    between atoms: _399  and  _402
REMARK  150  A    between atoms: _402  and  _403
REMARK  151  A    between atoms: _403  and  _404
REMARK  152  A    between atoms: _404  and  _405
REMARK  153  A    between atoms: _414  and  _416
REMARK  154  A    between atoms: _416  and  _417
REMARK  155  A    between atoms: _419  and  _421
REMARK  156  A    between atoms: _421  and  _422
REMARK  157  A    between atoms: _421  and  _424
REMARK  158  A    between atoms: _424  and  _425
REMARK  159  A    between atoms: _428  and  _430
REMARK  160  A    between atoms: _430  and  _431
REMARK                            x       y       z     vdW  Elec       q    Type
REMARK                         _______ _______ _______ _____ _____    ______ ____
ROOT
ATOM      1  CG  TYR A   1      24.954  59.768   0.901  0.00  0.00    -0.020 A 
ATOM      2  CD2 TYR A   1      24.527  58.664   1.646  0.00  0.00    -0.001 A 
ATOM      3  CE2 TYR A   1      24.385  58.753   3.019  0.00  0.00    +0.036 A 
ATOM      4  CZ  TYR A   1      24.737  59.941   3.679  0.00  0.00    +0.134 A 
ATOM      5  CE1 TYR A   1      25.170  61.037   2.956  0.00  0.00    +0.036 A 
ATOM      6  CD1 TYR A   1      25.292  60.941   1.578  0.00  0.00    -0.001 A 
ENDROOT
BRANCH   4   7
ATOM      7  OH  TYR A   1      24.671  60.061   5.046  0.00  0.00    -0.506 OA
ATOM      8  HH  TYR A   1      24.348  59.210   5.436  0.00  0.00    +0.292 HD
ENDBRANCH   4   7
BRANCH   1   9
ATOM      9  CB  TYR A   1      25.163  59.666  -0.582  0.00  0.00    +0.051 C 
BRANCH   9  10
ATOM     10  CA  TYR A   1      23.959  59.360  -1.440  0.00  0.00    +0.137 C 
BRANCH  10  11
ATOM     11  N   TYR A   1      24.403  59.428  -2.824  0.00  0.00    -0.239 NA
ATOM     12  H   TYR A   1      25.373  59.746  -3.025  0.00  0.00    +0.142 HD
ENDBRANCH  10  11
BRANCH  10  13
ATOM     13  C   TYR A   1      22.831  60.326  -1.069  0.00  0.00    +0.224 C 
ATOM     14  O   TYR A   1      22.865  61.479  -1.458  0.00  0.00    -0.287 OA
ENDBRANCH  10  13
ENDBRANCH   9  10
ENDBRANCH   1   9
TORSDOF 5
REMARK  Name = ../refined-set-2016/3ejq/3ejq_pocket.pdb
REMARK  160 active torsions:
REMARK  status: ('A' for Active; 'I' for Inactive)
REMARK    1  A    between atoms: _1  and  _3
REMARK    2  A    between atoms: _14  and  _17
REMARK    3  A    between atoms: _17  and  _18
REMARK    4  A    between atoms: _25  and  _26
REMARK    5  A    between atoms: _33  and  _34
REMARK    6  A    between atoms: _39  and  _41
REMARK    7  A    between atoms: _41  and  _42
REMARK    8  A    between atoms: _44  and  _46
REMARK    9  A    between atoms: _46  and  _47
REMARK   10  A    between atoms: _46  and  _49
REMARK   11  A    between atoms: _49  and  _50
REMARK   12  A    between atoms: _60  and  _62
REMARK   13  A    between atoms: _62  and  _63
REMARK   14  A    between atoms: _62  and  _65
REMARK   15  A    between atoms: _65  and  _66
REMARK   16  A    between atoms: _69  and  _71
REMARK   17  A    between atoms: _71  and  _72
REMARK   18  A    between atoms: _71  and  _74
REMARK   19  A    between atoms: _74  and  _75
REMARK   20  A    between atoms: _80  and  _81
REMARK   21  A    between atoms: _83  and  _85
REMARK   22  A    between atoms: _85  and  _86
REMARK   23  A    between atoms: _85  and  _88
REMARK   24  A    between atoms: _88  and  _89
REMARK   25  A    between atoms: _89  and  _90
REMARK   26  A    between atoms: _93  and  _95
REMARK   27  A    between atoms: _95  and  _96
REMARK   28  A    between atoms: _95  and  _98
REMARK   29  A    between atoms: _98  and  _99
REMARK   30  A    between atoms: _99  and  _100
REMARK   31  A    between atoms: _102  and  _104
REMARK   32  A    between atoms: _104  and  _105
REMARK   33  A    between atoms: _104  and  _107
REMARK   34  A    between atoms: _107  and  _108
REMARK   35  A    between atoms: _111  and  _113
REMARK   36  A    between atoms: _113  and  _114
REMARK   37  A    between atoms: _113  and  _116
REMARK   38  A    between atoms: _116  and  _117
REMARK   39  A    between atoms: _117  and  _119
REMARK   40  A    between atoms: _119  and  ZN_433
REMARK   41  A    between atoms: _121  and  _122
REMARK   42  A    between atoms: _127  and  _129
REMARK   43  A    between atoms: _129  and  _130
REMARK   44  A    between atoms: _129  and  _132
REMARK   45  A    between atoms: _132  and  _133
REMARK   46  A    between atoms: _139  and  _141
REMARK   47  A    between atoms: _141  and  _142
REMARK   48  A    between atoms: _141  and  _144
REMARK   49  A    between atoms: _144  and  _145
REMARK   50  A    between atoms: _145  and  _146
REMARK   51  A    between atoms: _151  and  _153
REMARK   52  A    between atoms: _153  and  _154
REMARK   53  A    between atoms: _153  and  _156
REMARK   54  A    between atoms: _156  and  _157
REMARK   55  A    between atoms: _157  and  _158
REMARK   56  A    between atoms: _158  and  _159
REMARK   57  A    between atoms: _168  and  _170
REMARK   58  A    between atoms: _170  and  _171
REMARK   59  A    between atoms: _170  and  _173
REMARK   60  A    between atoms: _173  and  _174
REMARK   61  A    between atoms: _179  and  _180
REMARK   62  A    between atoms: _182  and  _184
REMARK   63  A    between atoms: _184  and  _185
REMARK   64  A    between atoms: _184  and  _187
REMARK   65  A    between atoms: _187  and  _188
REMARK   66  A    between atoms: _190  and  _192
REMARK   67  A    between atoms: _192  and  _193
REMARK   68  A    between atoms: _192  and  _195
REMARK   69  A    between atoms: _195  and  _196
REMARK   70  A    between atoms: _201  and  _202
REMARK   71  A    between atoms: _204  and  _206
REMARK   72  A    between atoms: _206  and  _207
REMARK   73  A    between atoms: _206  and  _209
REMARK   74  A    between atoms: _209  and  _210
REMARK   75  A    between atoms: _213  and  _215
REMARK   76  A    between atoms: _215  and  _216
REMARK   77  A    between atoms: _215  and  _218
REMARK   78  A    between atoms: _218  and  _219
REMARK   79  A    between atoms: _222  and  _224
REMARK   80  A    between atoms: _224  and  _225
REMARK   81  A    between atoms: _224  and  _227
REMARK   82  A    between atoms: _227  and  _228
REMARK   83  A    between atoms: _234  and  _236
REMARK   84  A    between atoms: _236  and  _237
REMARK   85  A    between atoms: _236  and  _239
REMARK   86  A    between atoms: _239  and  _240
REMARK   87  A    between atoms: _245  and  _246
REMARK   88  A    between atoms: _248  and  _250
REMARK   89  A    between atoms: _250  and  _251
REMARK   90  A    between atoms: _250  and  _253
REMARK   91  A    between atoms: _253  and  _254
REMARK   92  A    between atoms: _257  and  _259
REMARK   93  A    between atoms: _259  and  _260
REMARK   94  A    between atoms: _259  and  _262
REMARK   95  A    between atoms: _262  and  _263
REMARK   96  A    between atoms: _263  and  _264
REMARK   97  A    between atoms: _264  and  _265
REMARK   98  A    between atoms: _274  and  _276
REMARK   99  A    between atoms: _276  and  _277
REMARK  100  A    between atoms: _276  and  _279
REMARK  101  A    between atoms: _279  and  _280
REMARK  102  A    between atoms: _290  and  _292
REMARK  103  A    between atoms: _292  and  _293
REMARK  104  A    between atoms: _292  and  _295
REMARK  105  A    between atoms: _295  and  _296
REMARK  106  A    between atoms: _301  and  _303
REMARK  107  A    between atoms: _303  and  _304
REMARK  108  A    between atoms: _303  and  _306
REMARK  109  A    between atoms: _306  and  _307
REMARK  110  A    between atoms: _311  and  ZN_433
REMARK  111  A    between atoms: _312  and  _314
REMARK  112  A    between atoms: _314  and  _315
REMARK  113  A    between atoms: _314  and  _317
REMARK  114  A    between atoms: _317  and  _318
REMARK  115  A    between atoms: _321  and  _323
REMARK  116  A    between atoms: _323  and  _324
REMARK  117  A    between atoms: _326  and  _328
REMARK  118  A    between atoms: _328  and  _329
REMARK  119  A    between atoms: _328  and  _331
REMARK  120  A    between atoms: _331  and  _332
REMARK  121  A    between atoms: _335  and  _337
REMARK  122  A    between atoms: _337  and  _338
REMARK  123  A    between atoms: _340  and  _342
REMARK  124  A    between atoms: _342  and  _343
REMARK  125  A    between atoms: _342  and  _345
REMARK  126  A    between atoms: _345  and  _346
REMARK  127  A    between atoms: _349  and  _351
REMARK  128  A    between atoms: _351  and  _352
REMARK  129  A    between atoms: _355  and  _357
REMARK  130  A    between atoms: _357  and  _358
REMARK  131  A    between atoms: _357  and  _360
REMARK  132  A    between atoms: _360  and  _361
REMARK  133  A    between atoms: _366  and  _367
REMARK  134  A    between atoms: _369  and  _371
REMARK  135  A    between atoms: _371  and  _372
REMARK  136  A    between atoms: _371  and  _374
REMARK  137  A    between atoms: _374  and  _375
REMARK  138  A    between atoms: _378  and  _380
REMARK  139  A    between atoms: _380  and  _381
REMARK  140  A    between atoms: _380  and  _383
REMARK  141  A    between atoms: _383  and  _384
REMARK  142  A    between atoms: _387  and  _389
REMARK  143  A    between atoms: _389  and  _390
REMARK  144  A    between atoms: _389  and  _392
REMARK  145  A    between atoms: _392  and  _393
REMARK  146  A    between atoms: _393  and  _394
REMARK  147  A    between atoms: _397  and  _399
REMARK  148  A    between atoms: _399  and  _400
REMARK  149  A    between atoms: _399  and  _402
REMARK  150  A    between atoms: _402  and  _403
REMARK  151  A    between atoms: _403  and  _404
REMARK  152  A    between atoms: _404  and  _405
REMARK  153  A    between atoms: _414  and  _416
REMARK  154  A    between atoms: _416  and  _417
REMARK  155  A    between atoms: _419  and  _421
REMARK  156  A    between atoms: _421  and  _422
REMARK  157  A    between atoms: _421  and  _424
REMARK  158  A    between atoms: _424  and  _425
REMARK  159  A    between atoms: _428  and  _430
REMARK  160  A    between atoms: _430  and  _431
REMARK                            x       y       z     vdW  Elec       q    Type
REMARK                         _______ _______ _______ _____ _____    ______ ____
ROOT
ATOM      1  CA  ARG A   2      17.173  61.661   4.529  0.00  0.00    +0.137 C 
ENDROOT
BRANCH   1   4
ATOM      2  C   ASP A   1      19.484  60.831   4.787  0.00  0.00    +0.239 C 
ATOM      3  O   ASP A   1      19.208  60.231   5.836  0.00  0.00    -0.274 OA
ATOM      4  N   ARG A   2      18.591  61.571   4.115  0.00  0.00    -0.298 N 
ATOM      5  H   ARG A   2      18.905  62.099   3.276  0.00  0.00    +0.150 HD
BRANCH   2   6
ATOM      6  CA  ASP A   1      20.914  60.776   4.222  0.00  0.00    +0.156 C 
BRANCH   6   7
ATOM      7  N   ASP A   1      21.021  61.124   2.794  0.00  0.00    -0.238 NA
ATOM      8  H   ASP A   1      21.214  62.109   2.523  0.00  0.00    +0.142 HD
ENDBRANCH   6   7
BRANCH   6   9
ATOM      9  CB  ASP A   1      21.869  61.621   5.098  0.00  0.00    +0.140 C 
BRANCH   9  10
ATOM     10  CG  ASP A   1      21.611  63.137   5.028  0.00  0.00    +0.367 C 
ATOM     11  OD2 ASP A   1      22.080  63.832   5.949  0.00  0.00    -0.246 OA
ATOM     12  OD1 ASP A   1      20.975  63.625   4.079  0.00  0.00    -0.246 OA
ENDBRANCH   9  10
ENDBRANCH   6   9
ENDBRANCH   2   6
ENDBRANCH   1   4
BRANCH   1  13
ATOM     13  C   ARG A   2      16.351  62.262   3.397  0.00  0.00    +0.227 C 
ATOM     14  O   ARG A   2      16.887  62.992   2.538  0.00  0.00    -0.286 OA
ENDBRANCH   1  13
BRANCH   1  15
ATOM     15  CB  ARG A   2      16.996  62.479   5.834  0.00  0.00    +0.031 C 
BRANCH  15  16
ATOM     16  CG  ARG A   2      17.507  63.925   5.794  0.00  0.00    +0.045 C 
BRANCH  16  17
ATOM     17  CD  ARG A   2      17.517  64.521   7.191  0.00  0.00    +0.174 C 
BRANCH  17  18
ATOM     18  NE  ARG A   2      18.161  65.834   7.262  0.00  0.00    -0.265 N 
ATOM     19  HE  ARG A   2      19.169  65.868   7.516  0.00  0.00    +0.259 HD
ATOM     20  CZ  ARG A   2      17.538  66.993   7.021  0.00  0.00    +0.342 C 
ATOM     21  NH2 ARG A   2      18.207  68.137   7.122  0.00  0.00    -0.292 N 
ATOM     22 HH21 ARG A   2      19.212  68.130   7.388  0.00  0.00    +0.255 HD
ATOM     23 HH22 ARG A   2      17.725  69.039   6.935  0.00  0.00    +0.255 HD
ATOM     24  NH1 ARG A   2      16.251  67.009   6.656  0.00  0.00    -0.292 N 
ATOM     25 HH11 ARG A   2      15.727  66.116   6.558  0.00  0.00    +0.255 HD
ATOM     26 HH12 ARG A   2      15.774  67.915   6.471  0.00  0.00    +0.255 HD
ENDBRANCH  17  18
ENDBRANCH  16  17
ENDBRANCH  15  16
ENDBRANCH   1  15
TORSDOF 10
REMARK  Name = ../refined-set-2016/3ejq/3ejq_pocket.pdb
REMARK  160 active torsions:
REMARK  status: ('A' for Active; 'I' for Inactive)
REMARK    1  A    between atoms: _1  and  _3
REMARK    2  A    between atoms: _14  and  _17
REMARK    3  A    between atoms: _17  and  _18
REMARK    4  A    between atoms: _25  and  _26
REMARK    5  A    between atoms: _33  and  _34
REMARK    6  A    between atoms: _39  and  _41
REMARK    7  A    between atoms: _41  and  _42
REMARK    8  A    between atoms: _44  and  _46
REMARK    9  A    between atoms: _46  and  _47
REMARK   10  A    between atoms: _46  and  _49
REMARK   11  A    between atoms: _49  and  _50
REMARK   12  A    between atoms: _60  and  _62
REMARK   13  A    between atoms: _62  and  _63
REMARK   14  A    between atoms: _62  and  _65
REMARK   15  A    between atoms: _65  and  _66
REMARK   16  A    between atoms: _69  and  _71
REMARK   17  A    between atoms: _71  and  _72
REMARK   18  A    between atoms: _71  and  _74
REMARK   19  A    between atoms: _74  and  _75
REMARK   20  A    between atoms: _80  and  _81
REMARK   21  A    between atoms: _83  and  _85
REMARK   22  A    between atoms: _85  and  _86
REMARK   23  A    between atoms: _85  and  _88
REMARK   24  A    between atoms: _88  and  _89
REMARK   25  A    between atoms: _89  and  _90
REMARK   26  A    between atoms: _93  and  _95
REMARK   27  A    between atoms: _95  and  _96
REMARK   28  A    between atoms: _95  and  _98
REMARK   29  A    between atoms: _98  and  _99
REMARK   30  A    between atoms: _99  and  _100
REMARK   31  A    between atoms: _102  and  _104
REMARK   32  A    between atoms: _104  and  _105
REMARK   33  A    between atoms: _104  and  _107
REMARK   34  A    between atoms: _107  and  _108
REMARK   35  A    between atoms: _111  and  _113
REMARK   36  A    between atoms: _113  and  _114
REMARK   37  A    between atoms: _113  and  _116
REMARK   38  A    between atoms: _116  and  _117
REMARK   39  A    between atoms: _117  and  _119
REMARK   40  A    between atoms: _119  and  ZN_433
REMARK   41  A    between atoms: _121  and  _122
REMARK   42  A    between atoms: _127  and  _129
REMARK   43  A    between atoms: _129  and  _130
REMARK   44  A    between atoms: _129  and  _132
REMARK   45  A    between atoms: _132  and  _133
REMARK   46  A    between atoms: _139  and  _141
REMARK   47  A    between atoms: _141  and  _142
REMARK   48  A    between atoms: _141  and  _144
REMARK   49  A    between atoms: _144  and  _145
REMARK   50  A    between atoms: _145  and  _146
REMARK   51  A    between atoms: _151  and  _153
REMARK   52  A    between atoms: _153  and  _154
REMARK   53  A    between atoms: _153  and  _156
REMARK   54  A    between atoms: _156  and  _157
REMARK   55  A    between atoms: _157  and  _158
REMARK   56  A    between atoms: _158  and  _159
REMARK   57  A    between atoms: _168  and  _170
REMARK   58  A    between atoms: _170  and  _171
REMARK   59  A    between atoms: _170  and  _173
REMARK   60  A    between atoms: _173  and  _174
REMARK   61  A    between atoms: _179  and  _180
REMARK   62  A    between atoms: _182  and  _184
REMARK   63  A    between atoms: _184  and  _185
REMARK   64  A    between atoms: _184  and  _187
REMARK   65  A    between atoms: _187  and  _188
REMARK   66  A    between atoms: _190  and  _192
REMARK   67  A    between atoms: _192  and  _193
REMARK   68  A    between atoms: _192  and  _195
REMARK   69  A    between atoms: _195  and  _196
REMARK   70  A    between atoms: _201  and  _202
REMARK   71  A    between atoms: _204  and  _206
REMARK   72  A    between atoms: _206  and  _207
REMARK   73  A    between atoms: _206  and  _209
REMARK   74  A    between atoms: _209  and  _210
REMARK   75  A    between atoms: _213  and  _215
REMARK   76  A    between atoms: _215  and  _216
REMARK   77  A    between atoms: _215  and  _218
REMARK   78  A    between atoms: _218  and  _219
REMARK   79  A    between atoms: _222  and  _224
REMARK   80  A    between atoms: _224  and  _225
REMARK   81  A    between atoms: _224  and  _227
REMARK   82  A    between atoms: _227  and  _228
REMARK   83  A    between atoms: _234  and  _236
REMARK   84  A    between atoms: _236  and  _237
REMARK   85  A    between atoms: _236  and  _239
REMARK   86  A    between atoms: _239  and  _240
REMARK   87  A    between atoms: _245  and  _246
REMARK   88  A    between atoms: _248  and  _250
REMARK   89  A    between atoms: _250  and  _251
REMARK   90  A    between atoms: _250  and  _253
REMARK   91  A    between atoms: _253  and  _254
REMARK   92  A    between atoms: _257  and  _259
REMARK   93  A    between atoms: _259  and  _260
REMARK   94  A    between atoms: _259  and  _262
REMARK   95  A    between atoms: _262  and  _263
REMARK   96  A    between atoms: _263  and  _264
REMARK   97  A    between atoms: _264  and  _265
REMARK   98  A    between atoms: _274  and  _276
REMARK   99  A    between atoms: _276  and  _277
REMARK  100  A    between atoms: _276  and  _279
REMARK  101  A    between atoms: _279  and  _280
REMARK  102  A    between atoms: _290  and  _292
REMARK  103  A    between atoms: _292  and  _293
REMARK  104  A    between atoms: _292  and  _295
REMARK  105  A    between atoms: _295  and  _296
REMARK  106  A    between atoms: _301  and  _303
REMARK  107  A    between atoms: _303  and  _304
REMARK  108  A    between atoms: _303  and  _306
REMARK  109  A    between atoms: _306  and  _307
REMARK  110  A    between atoms: _311  and  ZN_433
REMARK  111  A    between atoms: _312  and  _314
REMARK  112  A    between atoms: _314  and  _315
REMARK  113  A    between atoms: _314  and  _317
REMARK  114  A    between atoms: _317  and  _318
REMARK  115  A    between atoms: _321  and  _323
REMARK  116  A    between atoms: _323  and  _324
REMARK  117  A    between atoms: _326  and  _328
REMARK  118  A    between atoms: _328  and  _329
REMARK  119  A    between atoms: _328  and  _331
REMARK  120  A    between atoms: _331  and  _332
REMARK  121  A    between atoms: _335  and  _337
REMARK  122  A    between atoms: _337  and  _338
REMARK  123  A    between atoms: _340  and  _342
REMARK  124  A    between atoms: _342  and  _343
REMARK  125  A    between atoms: _342  and  _345
REMARK  126  A    between atoms: _345  and  _346
REMARK  127  A    between atoms: _349  and  _351
REMARK  128  A    between atoms: _351  and  _352
REMARK  129  A    between atoms: _355  and  _357
REMARK  130  A    between atoms: _357  and  _358
REMARK  131  A    between atoms: _357  and  _360
REMARK  132  A    between atoms: _360  and  _361
REMARK  133  A    between atoms: _366  and  _367
REMARK  134  A    between atoms: _369  and  _371
REMARK  135  A    between atoms: _371  and  _372
REMARK  136  A    between atoms: _371  and  _374
REMARK  137  A    between atoms: _374  and  _375
REMARK  138  A    between atoms: _378  and  _380
REMARK  139  A    between atoms: _380  and  _381
REMARK  140  A    between atoms: _380  and  _383
REMARK  141  A    between atoms: _383  and  _384
REMARK  142  A    between atoms: _387  and  _389
REMARK  143  A    between atoms: _389  and  _390
REMARK  144  A    between atoms: _389  and  _392
REMARK  145  A    between atoms: _392  and  _393
REMARK  146  A    between atoms: _393  and  _394
REMARK  147  A    between atoms: _397  and  _399
REMARK  148  A    between atoms: _399  and  _400
REMARK  149  A    between atoms: _399  and  _402
REMARK  150  A    between atoms: _402  and  _403
REMARK  151  A    between atoms: _403  and  _404
REMARK  152  A    between atoms: _404  and  _405
REMARK  153  A    between atoms: _414  and  _416
REMARK  154  A    between atoms: _416  and  _417
REMARK  155  A    between atoms: _419  and  _421
REMARK  156  A    between atoms: _421  and  _422
REMARK  157  A    between atoms: _421  and  _424
REMARK  158  A    between atoms: _424  and  _425
REMARK  159  A    between atoms: _428  and  _430
REMARK  160  A    between atoms: _430  and  _431
REMARK                            x       y       z     vdW  Elec       q    Type
REMARK                         _______ _______ _______ _____ _____    ______ ____
ROOT
ATOM      1  CG  TRP A   1      24.701  64.309   0.486  0.00  0.00    -0.002 A 
ATOM      2  CD2 TRP A   1      25.426  64.567   1.693  0.00  0.00    +0.013 A 
ATOM      3  CE2 TRP A   1      24.505  64.443   2.770  0.00  0.00    +0.056 A 
ATOM      4  CZ2 TRP A   1      24.884  64.630   4.109  0.00  0.00    +0.017 A 
ATOM      5  CH2 TRP A   1      26.211  64.938   4.356  0.00  0.00    +0.001 A 
ATOM      6  CZ3 TRP A   1      27.151  65.065   3.296  0.00  0.00    +0.000 A 
ATOM      7  NE1 TRP A   1      23.282  64.123   2.224  0.00  0.00    -0.352 N 
ATOM      8  HE1 TRP A   1      22.404  63.972   2.761  0.00  0.00    +0.166 HD
ATOM      9  CE3 TRP A   1      26.770  64.885   1.974  0.00  0.00    +0.001 A 
ATOM     10  CD1 TRP A   1      23.403  64.035   0.870  0.00  0.00    +0.068 A 
ENDROOT
BRANCH   1  11
ATOM     11  CB  TRP A   1      25.268  64.296  -0.898  0.00  0.00    +0.053 C 
BRANCH  11  12
ATOM     12  CA  TRP A   1      24.387  64.962  -1.958  0.00  0.00    +0.137 C 
BRANCH  12  13
ATOM     13  N   TRP A   1      23.122  64.236  -2.084  0.00  0.00    -0.239 NA
ATOM     14  H   TRP A   1      23.116  63.205  -1.946  0.00  0.00    +0.142 HD
ENDBRANCH  12  13
BRANCH  12  15
ATOM     15  C   TRP A   1      25.111  65.044  -3.296  0.00  0.00    +0.224 C 
ATOM     16  O   TRP A   1      26.234  64.563  -3.424  0.00  0.00    -0.287 OA
ENDBRANCH  12  15
ENDBRANCH  11  12
ENDBRANCH   1  11
TORSDOF 4
REMARK  Name = ../refined-set-2016/3ejq/3ejq_pocket.pdb
REMARK  160 active torsions:
REMARK  status: ('A' for Active; 'I' for Inactive)
REMARK    1  A    between atoms: _1  and  _3
REMARK    2  A    between atoms: _14  and  _17
REMARK    3  A    between atoms: _17  and  _18
REMARK    4  A    between atoms: _25  and  _26
REMARK    5  A    between atoms: _33  and  _34
REMARK    6  A    between atoms: _39  and  _41
REMARK    7  A    between atoms: _41  and  _42
REMARK    8  A    between atoms: _44  and  _46
REMARK    9  A    between atoms: _46  and  _47
REMARK   10  A    between atoms: _46  and  _49
REMARK   11  A    between atoms: _49  and  _50
REMARK   12  A    between atoms: _60  and  _62
REMARK   13  A    between atoms: _62  and  _63
REMARK   14  A    between atoms: _62  and  _65
REMARK   15  A    between atoms: _65  and  _66
REMARK   16  A    between atoms: _69  and  _71
REMARK   17  A    between atoms: _71  and  _72
REMARK   18  A    between atoms: _71  and  _74
REMARK   19  A    between atoms: _74  and  _75
REMARK   20  A    between atoms: _80  and  _81
REMARK   21  A    between atoms: _83  and  _85
REMARK   22  A    between atoms: _85  and  _86
REMARK   23  A    between atoms: _85  and  _88
REMARK   24  A    between atoms: _88  and  _89
REMARK   25  A    between atoms: _89  and  _90
REMARK   26  A    between atoms: _93  and  _95
REMARK   27  A    between atoms: _95  and  _96
REMARK   28  A    between atoms: _95  and  _98
REMARK   29  A    between atoms: _98  and  _99
REMARK   30  A    between atoms: _99  and  _100
REMARK   31  A    between atoms: _102  and  _104
REMARK   32  A    between atoms: _104  and  _105
REMARK   33  A    between atoms: _104  and  _107
REMARK   34  A    between atoms: _107  and  _108
REMARK   35  A    between atoms: _111  and  _113
REMARK   36  A    between atoms: _113  and  _114
REMARK   37  A    between atoms: _113  and  _116
REMARK   38  A    between atoms: _116  and  _117
REMARK   39  A    between atoms: _117  and  _119
REMARK   40  A    between atoms: _119  and  ZN_433
REMARK   41  A    between atoms: _121  and  _122
REMARK   42  A    between atoms: _127  and  _129
REMARK   43  A    between atoms: _129  and  _130
REMARK   44  A    between atoms: _129  and  _132
REMARK   45  A    between atoms: _132  and  _133
REMARK   46  A    between atoms: _139  and  _141
REMARK   47  A    between atoms: _141  and  _142
REMARK   48  A    between atoms: _141  and  _144
REMARK   49  A    between atoms: _144  and  _145
REMARK   50  A    between atoms: _145  and  _146
REMARK   51  A    between atoms: _151  and  _153
REMARK   52  A    between atoms: _153  and  _154
REMARK   53  A    between atoms: _153  and  _156
REMARK   54  A    between atoms: _156  and  _157
REMARK   55  A    between atoms: _157  and  _158
REMARK   56  A    between atoms: _158  and  _159
REMARK   57  A    between atoms: _168  and  _170
REMARK   58  A    between atoms: _170  and  _171
REMARK   59  A    between atoms: _170  and  _173
REMARK   60  A    between atoms: _173  and  _174
REMARK   61  A    between atoms: _179  and  _180
REMARK   62  A    between atoms: _182  and  _184
REMARK   63  A    between atoms: _184  and  _185
REMARK   64  A    between atoms: _184  and  _187
REMARK   65  A    between atoms: _187  and  _188
REMARK   66  A    between atoms: _190  and  _192
REMARK   67  A    between atoms: _192  and  _193
REMARK   68  A    between atoms: _192  and  _195
REMARK   69  A    between atoms: _195  and  _196
REMARK   70  A    between atoms: _201  and  _202
REMARK   71  A    between atoms: _204  and  _206
REMARK   72  A    between atoms: _206  and  _207
REMARK   73  A    between atoms: _206  and  _209
REMARK   74  A    between atoms: _209  and  _210
REMARK   75  A    between atoms: _213  and  _215
REMARK   76  A    between atoms: _215  and  _216
REMARK   77  A    between atoms: _215  and  _218
REMARK   78  A    between atoms: _218  and  _219
REMARK   79  A    between atoms: _222  and  _224
REMARK   80  A    between atoms: _224  and  _225
REMARK   81  A    between atoms: _224  and  _227
REMARK   82  A    between atoms: _227  and  _228
REMARK   83  A    between atoms: _234  and  _236
REMARK   84  A    between atoms: _236  and  _237
REMARK   85  A    between atoms: _236  and  _239
REMARK   86  A    between atoms: _239  and  _240
REMARK   87  A    between atoms: _245  and  _246
REMARK   88  A    between atoms: _248  and  _250
REMARK   89  A    between atoms: _250  and  _251
REMARK   90  A    between atoms: _250  and  _253
REMARK   91  A    between atoms: _253  and  _254
REMARK   92  A    between atoms: _257  and  _259
REMARK   93  A    between atoms: _259  and  _260
REMARK   94  A    between atoms: _259  and  _262
REMARK   95  A    between atoms: _262  and  _263
REMARK   96  A    between atoms: _263  and  _264
REMARK   97  A    between atoms: _264  and  _265
REMARK   98  A    between atoms: _274  and  _276
REMARK   99  A    between atoms: _276  and  _277
REMARK  100  A    between atoms: _276  and  _279
REMARK  101  A    between atoms: _279  and  _280
REMARK  102  A    between atoms: _290  and  _292
REMARK  103  A    between atoms: _292  and  _293
REMARK  104  A    between atoms: _292  and  _295
REMARK  105  A    between atoms: _295  and  _296
REMARK  106  A    between atoms: _301  and  _303
REMARK  107  A    between atoms: _303  and  _304
REMARK  108  A    between atoms: _303  and  _306
REMARK  109  A    between atoms: _306  and  _307
REMARK  110  A    between atoms: _311  and  ZN_433
REMARK  111  A    between atoms: _312  and  _314
REMARK  112  A    between atoms: _314  and  _315
REMARK  113  A    between atoms: _314  and  _317
REMARK  114  A    between atoms: _317  and  _318
REMARK  115  A    between atoms: _321  and  _323
REMARK  116  A    between atoms: _323  and  _324
REMARK  117  A    between atoms: _326  and  _328
REMARK  118  A    between atoms: _328  and  _329
REMARK  119  A    between atoms: _328  and  _331
REMARK  120  A    between atoms: _331  and  _332
REMARK  121  A    between atoms: _335  and  _337
REMARK  122  A    between atoms: _337  and  _338
REMARK  123  A    between atoms: _340  and  _342
REMARK  124  A    between atoms: _342  and  _343
REMARK  125  A    between atoms: _342  and  _345
REMARK  126  A    between atoms: _345  and  _346
REMARK  127  A    between atoms: _349  and  _351
REMARK  128  A    between atoms: _351  and  _352
REMARK  129  A    between atoms: _355  and  _357
REMARK  130  A    between atoms: _357  and  _358
REMARK  131  A    between atoms: _357  and  _360
REMARK  132  A    between atoms: _360  and  _361
REMARK  133  A    between atoms: _366  and  _367
REMARK  134  A    between atoms: _369  and  _371
REMARK  135  A    between atoms: _371  and  _372
REMARK  136  A    between atoms: _371  and  _374
REMARK  137  A    between atoms: _374  and  _375
REMARK  138  A    between atoms: _378  and  _380
REMARK  139  A    between atoms: _380  and  _381
REMARK  140  A    between atoms: _380  and  _383
REMARK  141  A    between atoms: _383  and  _384
REMARK  142  A    between atoms: _387  and  _389
REMARK  143  A    between atoms: _389  and  _390
REMARK  144  A    between atoms: _389  and  _392
REMARK  145  A    between atoms: _392  and  _393
REMARK  146  A    between atoms: _393  and  _394
REMARK  147  A    between atoms: _397  and  _399
REMARK  148  A    between atoms: _399  and  _400
REMARK  149  A    between atoms: _399  and  _402
REMARK  150  A    between atoms: _402  and  _403
REMARK  151  A    between atoms: _403  and  _404
REMARK  152  A    between atoms: _404  and  _405
REMARK  153  A    between atoms: _414  and  _416
REMARK  154  A    between atoms: _416  and  _417
REMARK  155  A    between atoms: _419  and  _421
REMARK  156  A    between atoms: _421  and  _422
REMARK  157  A    between atoms: _421  and  _424
REMARK  158  A    between atoms: _424  and  _425
REMARK  159  A    between atoms: _428  and  _430
REMARK  160  A    between atoms: _430  and  _431
REMARK                            x       y       z     vdW  Elec       q    Type
REMARK                         _______ _______ _______ _____ _____    ______ ____
ROOT
ATOM      1  C   GLY A   2      33.451  72.116  -0.679  0.00  0.00    +0.243 C 
ATOM      2  N   THR A   3      33.642  71.389   0.427  0.00  0.00    -0.295 N 
ATOM      3  H   THR A   3      34.451  70.737   0.473  0.00  0.00    +0.150 HD
ATOM      4  O   GLY A   2      32.568  72.974  -0.802  0.00  0.00    -0.273 OA
ENDROOT
BRANCH   1   5
ATOM      5  CA  GLY A   2      34.448  71.893  -1.796  0.00  0.00    +0.176 C 
BRANCH   5   7
ATOM      6  C   THR A   1      34.127  69.528  -2.259  0.00  0.00    +0.241 C 
ATOM      7  N   GLY A   2      34.941  70.506  -1.866  0.00  0.00    -0.295 N 
ATOM      8  H   GLY A   2      35.925  70.291  -1.608  0.00  0.00    +0.150 HD
ATOM      9  O   THR A   1      32.961  69.757  -2.617  0.00  0.00    -0.274 OA
BRANCH   6  10
ATOM     10  CA  THR A   1      34.676  68.076  -2.235  0.00  0.00    +0.172 C 
BRANCH  10  11
ATOM     11  N   THR A   1      36.134  68.023  -2.206  0.00  0.00    -0.236 NA
ATOM     12  H   THR A   1      36.608  67.657  -1.356  0.00  0.00    +0.142 HD
ENDBRANCH  10  11
BRANCH  10  13
ATOM     13  CB  THR A   1      34.121  67.442  -0.970  0.00  0.00    +0.135 C 
ATOM     14  CG2 THR A   1      34.489  65.973  -0.900  0.00  0.00    +0.034 C 
BRANCH  13  15
ATOM     15  OG1 THR A   1      34.648  68.150   0.167  0.00  0.00    -0.383 OA
ATOM     16  HG1 THR A   1      34.294  67.746   0.999  0.00  0.00    +0.210 HD
ENDBRANCH  13  15
ENDBRANCH  10  13
ENDBRANCH   6  10
ENDBRANCH   5   7
ENDBRANCH   1   5
BRANCH   2  17
ATOM     17  CA  THR A   3      32.744  71.489   1.568  0.00  0.00    +0.176 C 
BRANCH  17  18
ATOM     18  C   THR A   3      33.403  72.067   2.841  0.00  0.00    +0.243 C 
ATOM     19  O   THR A   3      32.905  71.858   3.939  0.00  0.00    -0.273 OA
ATOM     20  N   ALA A   4      34.492  72.831   2.694  0.00  0.00    -0.298 N 
ATOM     21  H   ALA A   4      34.880  72.991   1.743  0.00  0.00    +0.150 HD
BRANCH  20  22
ATOM     22  CA  ALA A   4      35.149  73.449   3.858  0.00  0.00    +0.137 C 
ATOM     23  CB  ALA A   4      36.694  73.281   3.787  0.00  0.00    +0.030 C 
BRANCH  22  24
ATOM     24  C   ALA A   4      34.775  74.932   3.930  0.00  0.00    +0.227 C 
ATOM     25  O   ALA A   4      34.254  75.520   2.965  0.00  0.00    -0.286 OA
ENDBRANCH  22  24
ENDBRANCH  20  22
ENDBRANCH  17  18
BRANCH  17  26
ATOM     26  CB  THR A   3      32.069  70.125   1.884  0.00  0.00    +0.137 C 
ATOM     27  CG2 THR A   3      31.190  69.680   0.707  0.00  0.00    +0.034 C 
BRANCH  26  28
ATOM     28  OG1 THR A   3      33.065  69.124   2.176  0.00  0.00    -0.382 OA
ATOM     29  HG1 THR A   3      33.661  69.015   1.393  0.00  0.00    +0.210 HD
ENDBRANCH  26  28
ENDBRANCH  17  26
ENDBRANCH   2  17
TORSDOF 12
REMARK  Name = ../refined-set-2016/3ejq/3ejq_pocket.pdb
REMARK  160 active torsions:
REMARK  status: ('A' for Active; 'I' for Inactive)
REMARK    1  A    between atoms: _1  and  _3
REMARK    2  A    between atoms: _14  and  _17
REMARK    3  A    between atoms: _17  and  _18
REMARK    4  A    between atoms: _25  and  _26
REMARK    5  A    between atoms: _33  and  _34
REMARK    6  A    between atoms: _39  and  _41
REMARK    7  A    between atoms: _41  and  _42
REMARK    8  A    between atoms: _44  and  _46
REMARK    9  A    between atoms: _46  and  _47
REMARK   10  A    between atoms: _46  and  _49
REMARK   11  A    between atoms: _49  and  _50
REMARK   12  A    between atoms: _60  and  _62
REMARK   13  A    between atoms: _62  and  _63
REMARK   14  A    between atoms: _62  and  _65
REMARK   15  A    between atoms: _65  and  _66
REMARK   16  A    between atoms: _69  and  _71
REMARK   17  A    between atoms: _71  and  _72
REMARK   18  A    between atoms: _71  and  _74
REMARK   19  A    between atoms: _74  and  _75
REMARK   20  A    between atoms: _80  and  _81
REMARK   21  A    between atoms: _83  and  _85
REMARK   22  A    between atoms: _85  and  _86
REMARK   23  A    between atoms: _85  and  _88
REMARK   24  A    between atoms: _88  and  _89
REMARK   25  A    between atoms: _89  and  _90
REMARK   26  A    between atoms: _93  and  _95
REMARK   27  A    between atoms: _95  and  _96
REMARK   28  A    between atoms: _95  and  _98
REMARK   29  A    between atoms: _98  and  _99
REMARK   30  A    between atoms: _99  and  _100
REMARK   31  A    between atoms: _102  and  _104
REMARK   32  A    between atoms: _104  and  _105
REMARK   33  A    between atoms: _104  and  _107
REMARK   34  A    between atoms: _107  and  _108
REMARK   35  A    between atoms: _111  and  _113
REMARK   36  A    between atoms: _113  and  _114
REMARK   37  A    between atoms: _113  and  _116
REMARK   38  A    between atoms: _116  and  _117
REMARK   39  A    between atoms: _117  and  _119
REMARK   40  A    between atoms: _119  and  ZN_433
REMARK   41  A    between atoms: _121  and  _122
REMARK   42  A    between atoms: _127  and  _129
REMARK   43  A    between atoms: _129  and  _130
REMARK   44  A    between atoms: _129  and  _132
REMARK   45  A    between atoms: _132  and  _133
REMARK   46  A    between atoms: _139  and  _141
REMARK   47  A    between atoms: _141  and  _142
REMARK   48  A    between atoms: _141  and  _144
REMARK   49  A    between atoms: _144  and  _145
REMARK   50  A    between atoms: _145  and  _146
REMARK   51  A    between atoms: _151  and  _153
REMARK   52  A    between atoms: _153  and  _154
REMARK   53  A    between atoms: _153  and  _156
REMARK   54  A    between atoms: _156  and  _157
REMARK   55  A    between atoms: _157  and  _158
REMARK   56  A    between atoms: _158  and  _159
REMARK   57  A    between atoms: _168  and  _170
REMARK   58  A    between atoms: _170  and  _171
REMARK   59  A    between atoms: _170  and  _173
REMARK   60  A    between atoms: _173  and  _174
REMARK   61  A    between atoms: _179  and  _180
REMARK   62  A    between atoms: _182  and  _184
REMARK   63  A    between atoms: _184  and  _185
REMARK   64  A    between atoms: _184  and  _187
REMARK   65  A    between atoms: _187  and  _188
REMARK   66  A    between atoms: _190  and  _192
REMARK   67  A    between atoms: _192  and  _193
REMARK   68  A    between atoms: _192  and  _195
REMARK   69  A    between atoms: _195  and  _196
REMARK   70  A    between atoms: _201  and  _202
REMARK   71  A    between atoms: _204  and  _206
REMARK   72  A    between atoms: _206  and  _207
REMARK   73  A    between atoms: _206  and  _209
REMARK   74  A    between atoms: _209  and  _210
REMARK   75  A    between atoms: _213  and  _215
REMARK   76  A    between atoms: _215  and  _216
REMARK   77  A    between atoms: _215  and  _218
REMARK   78  A    between atoms: _218  and  _219
REMARK   79  A    between atoms: _222  and  _224
REMARK   80  A    between atoms: _224  and  _225
REMARK   81  A    between atoms: _224  and  _227
REMARK   82  A    between atoms: _227  and  _228
REMARK   83  A    between atoms: _234  and  _236
REMARK   84  A    between atoms: _236  and  _237
REMARK   85  A    between atoms: _236  and  _239
REMARK   86  A    between atoms: _239  and  _240
REMARK   87  A    between atoms: _245  and  _246
REMARK   88  A    between atoms: _248  and  _250
REMARK   89  A    between atoms: _250  and  _251
REMARK   90  A    between atoms: _250  and  _253
REMARK   91  A    between atoms: _253  and  _254
REMARK   92  A    between atoms: _257  and  _259
REMARK   93  A    between atoms: _259  and  _260
REMARK   94  A    between atoms: _259  and  _262
REMARK   95  A    between atoms: _262  and  _263
REMARK   96  A    between atoms: _263  and  _264
REMARK   97  A    between atoms: _264  and  _265
REMARK   98  A    between atoms: _274  and  _276
REMARK   99  A    between atoms: _276  and  _277
REMARK  100  A    between atoms: _276  and  _279
REMARK  101  A    between atoms: _279  and  _280
REMARK  102  A    between atoms: _290  and  _292
REMARK  103  A    between atoms: _292  and  _293
REMARK  104  A    between atoms: _292  and  _295
REMARK  105  A    between atoms: _295  and  _296
REMARK  106  A    between atoms: _301  and  _303
REMARK  107  A    between atoms: _303  and  _304
REMARK  108  A    between atoms: _303  and  _306
REMARK  109  A    between atoms: _306  and  _307
REMARK  110  A    between atoms: _311  and  ZN_433
REMARK  111  A    between atoms: _312  and  _314
REMARK  112  A    between atoms: _314  and  _315
REMARK  113  A    between atoms: _314  and  _317
REMARK  114  A    between atoms: _317  and  _318
REMARK  115  A    between atoms: _321  and  _323
REMARK  116  A    between atoms: _323  and  _324
REMARK  117  A    between atoms: _326  and  _328
REMARK  118  A    between atoms: _328  and  _329
REMARK  119  A    between atoms: _328  and  _331
REMARK  120  A    between atoms: _331  and  _332
REMARK  121  A    between atoms: _335  and  _337
REMARK  122  A    between atoms: _337  and  _338
REMARK  123  A    between atoms: _340  and  _342
REMARK  124  A    between atoms: _342  and  _343
REMARK  125  A    between atoms: _342  and  _345
REMARK  126  A    between atoms: _345  and  _346
REMARK  127  A    between atoms: _349  and  _351
REMARK  128  A    between atoms: _351  and  _352
REMARK  129  A    between atoms: _355  and  _357
REMARK  130  A    between atoms: _357  and  _358
REMARK  131  A    between atoms: _357  and  _360
REMARK  132  A    between atoms: _360  and  _361
REMARK  133  A    between atoms: _366  and  _367
REMARK  134  A    between atoms: _369  and  _371
REMARK  135  A    between atoms: _371  and  _372
REMARK  136  A    between atoms: _371  and  _374
REMARK  137  A    between atoms: _374  and  _375
REMARK  138  A    between atoms: _378  and  _380
REMARK  139  A    between atoms: _380  and  _381
REMARK  140  A    between atoms: _380  and  _383
REMARK  141  A    between atoms: _383  and  _384
REMARK  142  A    between atoms: _387  and  _389
REMARK  143  A    between atoms: _389  and  _390
REMARK  144  A    between atoms: _389  and  _392
REMARK  145  A    between atoms: _392  and  _393
REMARK  146  A    between atoms: _393  and  _394
REMARK  147  A    between atoms: _397  and  _399
REMARK  148  A    between atoms: _399  and  _400
REMARK  149  A    between atoms: _399  and  _402
REMARK  150  A    between atoms: _402  and  _403
REMARK  151  A    between atoms: _403  and  _404
REMARK  152  A    between atoms: _404  and  _405
REMARK  153  A    between atoms: _414  and  _416
REMARK  154  A    between atoms: _416  and  _417
REMARK  155  A    between atoms: _419  and  _421
REMARK  156  A    between atoms: _421  and  _422
REMARK  157  A    between atoms: _421  and  _424
REMARK  158  A    between atoms: _424  and  _425
REMARK  159  A    between atoms: _428  and  _430
REMARK  160  A    between atoms: _430  and  _431
REMARK                            x       y       z     vdW  Elec       q    Type
REMARK                         _______ _______ _______ _____ _____    ______ ____
ROOT
ATOM      1  CG  TYR A   1      27.373  69.099   2.232  0.00  0.00    -0.020 A 
ATOM      2  CD2 TYR A   1      27.253  70.246   3.034  0.00  0.00    -0.001 A 
ATOM      3  CE2 TYR A   1      28.200  70.534   4.030  0.00  0.00    +0.036 A 
ATOM      4  CZ  TYR A   1      29.288  69.679   4.199  0.00  0.00    +0.134 A 
ATOM      5  CE1 TYR A   1      29.418  68.533   3.403  0.00  0.00    +0.036 A 
ATOM      6  CD1 TYR A   1      28.471  68.250   2.450  0.00  0.00    -0.001 A 
ENDROOT
BRANCH   4   7
ATOM      7  OH  TYR A   1      30.195  69.983   5.180  0.00  0.00    -0.506 OA
ATOM      8  HH  TYR A   1      30.218  69.250   5.845  0.00  0.00    +0.292 HD
ENDBRANCH   4   7
BRANCH   1   9
ATOM      9  CB  TYR A   1      26.330  68.767   1.170  0.00  0.00    +0.051 C 
BRANCH   9  10
ATOM     10  CA  TYR A   1      26.600  69.412  -0.184  0.00  0.00    +0.137 C 
BRANCH  10  11
ATOM     11  N   TYR A   1      26.819  70.859  -0.046  0.00  0.00    -0.239 NA
ATOM     12  H   TYR A   1      26.302  71.378   0.693  0.00  0.00    +0.142 HD
ENDBRANCH  10  11
BRANCH  10  13
ATOM     13  C   TYR A   1      25.431  69.077  -1.094  0.00  0.00    +0.224 C 
ATOM     14  O   TYR A   1      25.547  68.242  -2.012  0.00  0.00    -0.287 OA
ENDBRANCH  10  13
ENDBRANCH   9  10
ENDBRANCH   1   9
TORSDOF 5
REMARK  Name = ../refined-set-2016/3ejq/3ejq_pocket.pdb
REMARK  160 active torsions:
REMARK  status: ('A' for Active; 'I' for Inactive)
REMARK    1  A    between atoms: _1  and  _3
REMARK    2  A    between atoms: _14  and  _17
REMARK    3  A    between atoms: _17  and  _18
REMARK    4  A    between atoms: _25  and  _26
REMARK    5  A    between atoms: _33  and  _34
REMARK    6  A    between atoms: _39  and  _41
REMARK    7  A    between atoms: _41  and  _42
REMARK    8  A    between atoms: _44  and  _46
REMARK    9  A    between atoms: _46  and  _47
REMARK   10  A    between atoms: _46  and  _49
REMARK   11  A    between atoms: _49  and  _50
REMARK   12  A    between atoms: _60  and  _62
REMARK   13  A    between atoms: _62  and  _63
REMARK   14  A    between atoms: _62  and  _65
REMARK   15  A    between atoms: _65  and  _66
REMARK   16  A    between atoms: _69  and  _71
REMARK   17  A    between atoms: _71  and  _72
REMARK   18  A    between atoms: _71  and  _74
REMARK   19  A    between atoms: _74  and  _75
REMARK   20  A    between atoms: _80  and  _81
REMARK   21  A    between atoms: _83  and  _85
REMARK   22  A    between atoms: _85  and  _86
REMARK   23  A    between atoms: _85  and  _88
REMARK   24  A    between atoms: _88  and  _89
REMARK   25  A    between atoms: _89  and  _90
REMARK   26  A    between atoms: _93  and  _95
REMARK   27  A    between atoms: _95  and  _96
REMARK   28  A    between atoms: _95  and  _98
REMARK   29  A    between atoms: _98  and  _99
REMARK   30  A    between atoms: _99  and  _100
REMARK   31  A    between atoms: _102  and  _104
REMARK   32  A    between atoms: _104  and  _105
REMARK   33  A    between atoms: _104  and  _107
REMARK   34  A    between atoms: _107  and  _108
REMARK   35  A    between atoms: _111  and  _113
REMARK   36  A    between atoms: _113  and  _114
REMARK   37  A    between atoms: _113  and  _116
REMARK   38  A    between atoms: _116  and  _117
REMARK   39  A    between atoms: _117  and  _119
REMARK   40  A    between atoms: _119  and  ZN_433
REMARK   41  A    between atoms: _121  and  _122
REMARK   42  A    between atoms: _127  and  _129
REMARK   43  A    between atoms: _129  and  _130
REMARK   44  A    between atoms: _129  and  _132
REMARK   45  A    between atoms: _132  and  _133
REMARK   46  A    between atoms: _139  and  _141
REMARK   47  A    between atoms: _141  and  _142
REMARK   48  A    between atoms: _141  and  _144
REMARK   49  A    between atoms: _144  and  _145
REMARK   50  A    between atoms: _145  and  _146
REMARK   51  A    between atoms: _151  and  _153
REMARK   52  A    between atoms: _153  and  _154
REMARK   53  A    between atoms: _153  and  _156
REMARK   54  A    between atoms: _156  and  _157
REMARK   55  A    between atoms: _157  and  _158
REMARK   56  A    between atoms: _158  and  _159
REMARK   57  A    between atoms: _168  and  _170
REMARK   58  A    between atoms: _170  and  _171
REMARK   59  A    between atoms: _170  and  _173
REMARK   60  A    between atoms: _173  and  _174
REMARK   61  A    between atoms: _179  and  _180
REMARK   62  A    between atoms: _182  and  _184
REMARK   63  A    between atoms: _184  and  _185
REMARK   64  A    between atoms: _184  and  _187
REMARK   65  A    between atoms: _187  and  _188
REMARK   66  A    between atoms: _190  and  _192
REMARK   67  A    between atoms: _192  and  _193
REMARK   68  A    between atoms: _192  and  _195
REMARK   69  A    between atoms: _195  and  _196
REMARK   70  A    between atoms: _201  and  _202
REMARK   71  A    between atoms: _204  and  _206
REMARK   72  A    between atoms: _206  and  _207
REMARK   73  A    between atoms: _206  and  _209
REMARK   74  A    between atoms: _209  and  _210
REMARK   75  A    between atoms: _213  and  _215
REMARK   76  A    between atoms: _215  and  _216
REMARK   77  A    between atoms: _215  and  _218
REMARK   78  A    between atoms: _218  and  _219
REMARK   79  A    between atoms: _222  and  _224
REMARK   80  A    between atoms: _224  and  _225
REMARK   81  A    between atoms: _224  and  _227
REMARK   82  A    between atoms: _227  and  _228
REMARK   83  A    between atoms: _234  and  _236
REMARK   84  A    between atoms: _236  and  _237
REMARK   85  A    between atoms: _236  and  _239
REMARK   86  A    between atoms: _239  and  _240
REMARK   87  A    between atoms: _245  and  _246
REMARK   88  A    between atoms: _248  and  _250
REMARK   89  A    between atoms: _250  and  _251
REMARK   90  A    between atoms: _250  and  _253
REMARK   91  A    between atoms: _253  and  _254
REMARK   92  A    between atoms: _257  and  _259
REMARK   93  A    between atoms: _259  and  _260
REMARK   94  A    between atoms: _259  and  _262
REMARK   95  A    between atoms: _262  and  _263
REMARK   96  A    between atoms: _263  and  _264
REMARK   97  A    between atoms: _264  and  _265
REMARK   98  A    between atoms: _274  and  _276
REMARK   99  A    between atoms: _276  and  _277
REMARK  100  A    between atoms: _276  and  _279
REMARK  101  A    between atoms: _279  and  _280
REMARK  102  A    between atoms: _290  and  _292
REMARK  103  A    between atoms: _292  and  _293
REMARK  104  A    between atoms: _292  and  _295
REMARK  105  A    between atoms: _295  and  _296
REMARK  106  A    between atoms: _301  and  _303
REMARK  107  A    between atoms: _303  and  _304
REMARK  108  A    between atoms: _303  and  _306
REMARK  109  A    between atoms: _306  and  _307
REMARK  110  A    between atoms: _311  and  ZN_433
REMARK  111  A    between atoms: _312  and  _314
REMARK  112  A    between atoms: _314  and  _315
REMARK  113  A    between atoms: _314  and  _317
REMARK  114  A    between atoms: _317  and  _318
REMARK  115  A    between atoms: _321  and  _323
REMARK  116  A    between atoms: _323  and  _324
REMARK  117  A    between atoms: _326  and  _328
REMARK  118  A    between atoms: _328  and  _329
REMARK  119  A    between atoms: _328  and  _331
REMARK  120  A    between atoms: _331  and  _332
REMARK  121  A    between atoms: _335  and  _337
REMARK  122  A    between atoms: _337  and  _338
REMARK  123  A    between atoms: _340  and  _342
REMARK  124  A    between atoms: _342  and  _343
REMARK  125  A    between atoms: _342  and  _345
REMARK  126  A    between atoms: _345  and  _346
REMARK  127  A    between atoms: _349  and  _351
REMARK  128  A    between atoms: _351  and  _352
REMARK  129  A    between atoms: _355  and  _357
REMARK  130  A    between atoms: _357  and  _358
REMARK  131  A    between atoms: _357  and  _360
REMARK  132  A    between atoms: _360  and  _361
REMARK  133  A    between atoms: _366  and  _367
REMARK  134  A    between atoms: _369  and  _371
REMARK  135  A    between atoms: _371  and  _372
REMARK  136  A    between atoms: _371  and  _374
REMARK  137  A    between atoms: _374  and  _375
REMARK  138  A    between atoms: _378  and  _380
REMARK  139  A    between atoms: _380  and  _381
REMARK  140  A    between atoms: _380  and  _383
REMARK  141  A    between atoms: _383  and  _384
REMARK  142  A    between atoms: _387  and  _389
REMARK  143  A    between atoms: _389  and  _390
REMARK  144  A    between atoms: _389  and  _392
REMARK  145  A    between atoms: _392  and  _393
REMARK  146  A    between atoms: _393  and  _394
REMARK  147  A    between atoms: _397  and  _399
REMARK  148  A    between atoms: _399  and  _400
REMARK  149  A    between atoms: _399  and  _402
REMARK  150  A    between atoms: _402  and  _403
REMARK  151  A    between atoms: _403  and  _404
REMARK  152  A    between atoms: _404  and  _405
REMARK  153  A    between atoms: _414  and  _416
REMARK  154  A    between atoms: _416  and  _417
REMARK  155  A    between atoms: _419  and  _421
REMARK  156  A    between atoms: _421  and  _422
REMARK  157  A    between atoms: _421  and  _424
REMARK  158  A    between atoms: _424  and  _425
REMARK  159  A    between atoms: _428  and  _430
REMARK  160  A    between atoms: _430  and  _431
REMARK                            x       y       z     vdW  Elec       q    Type
REMARK                         _______ _______ _______ _____ _____    ______ ____
ROOT
ATOM      1  CA  ARG A   4      25.298  69.596   7.377  0.00  0.00    +0.149 C 
ENDROOT
BRANCH   1   4
ATOM      2  C   GLU A   3      23.157  70.751   7.706  0.00  0.00    +0.241 C 
ATOM      3  O   GLU A   3      22.676  69.815   8.350  0.00  0.00    -0.273 OA
ATOM      4  N   ARG A   4      24.377  70.715   7.162  0.00  0.00    -0.297 N 
ATOM      5  H   ARG A   4      24.684  71.509   6.565  0.00  0.00    +0.150 HD
BRANCH   2   6
ATOM      6  CA  GLU A   3      22.362  72.050   7.524  0.00  0.00    +0.149 C 
BRANCH   6   8
ATOM      7  C   ASP A   2      22.342  72.273   5.086  0.00  0.00    +0.241 C 
ATOM      8  N   GLU A   3      22.626  72.777   6.287  0.00  0.00    -0.297 N 
ATOM      9  H   GLU A   3      23.052  73.724   6.344  0.00  0.00    +0.150 HD
ATOM     10  O   ASP A   2      22.117  71.065   4.905  0.00  0.00    -0.273 OA
BRANCH   7  11
ATOM     11  CA  ASP A   2      22.330  73.251   3.902  0.00  0.00    +0.160 C 
BRANCH  11  14
ATOM     12  C   ASP A   1      22.658  75.643   4.342  0.00  0.00    +0.239 C 
ATOM     13  O   ASP A   1      21.444  75.857   4.387  0.00  0.00    -0.274 OA
ATOM     14  N   ASP A   2      23.176  74.429   4.115  0.00  0.00    -0.297 N 
ATOM     15  H   ASP A   2      24.210  74.319   4.089  0.00  0.00    +0.150 HD
BRANCH  12  16
ATOM     16  CA  ASP A   1      23.659  76.788   4.503  0.00  0.00    +0.156 C 
BRANCH  16  17
ATOM     17  N   ASP A   1      23.093  78.007   3.944  0.00  0.00    -0.238 NA
ATOM     18  H   ASP A   1      22.694  78.710   4.598  0.00  0.00    +0.142 HD
ENDBRANCH  16  17
BRANCH  16  19
ATOM     19  CB  ASP A   1      23.964  76.992   5.981  0.00  0.00    +0.140 C 
BRANCH  19  20
ATOM     20  CG  ASP A   1      24.495  75.734   6.635  0.00  0.00    +0.367 C 
ATOM     21  OD2 ASP A   1      23.793  75.169   7.500  0.00  0.00    -0.246 OA
ATOM     22  OD1 ASP A   1      25.612  75.299   6.264  0.00  0.00    -0.246 OA
ENDBRANCH  19  20
ENDBRANCH  16  19
ENDBRANCH  12  16
ENDBRANCH  11  14
BRANCH  11  23
ATOM     23  CB  ASP A   2      22.662  72.543   2.574  0.00  0.00    +0.143 C 
BRANCH  23  24
ATOM     24  CG  ASP A   2      24.150  72.228   2.399  0.00  0.00    +0.367 C 
ATOM     25  OD2 ASP A   2      24.986  72.566   3.268  0.00  0.00    -0.246 OA
ATOM     26  OD1 ASP A   2      24.461  71.663   1.335  0.00  0.00    -0.246 OA
ENDBRANCH  23  24
ENDBRANCH  11  23
ENDBRANCH   7  11
ENDBRANCH   6   8
BRANCH   6  27
ATOM     27  CB  GLU A   3      20.847  71.816   7.683  0.00  0.00    +0.041 C 
BRANCH  27  28
ATOM     28  CG  GLU A   3      20.064  73.118   7.934  0.00  0.00    +0.116 C 
BRANCH  28  29
ATOM     29  CD  GLU A   3      18.588  72.869   8.220  0.00  0.00    +0.365 C 
ATOM     30  OE2 GLU A   3      18.253  72.318   9.292  0.00  0.00    -0.246 OA
ATOM     31  OE1 GLU A   3      17.758  73.215   7.359  0.00  0.00    -0.246 OA
ENDBRANCH  28  29
ENDBRANCH  27  28
ENDBRANCH   6  27
ENDBRANCH   2   6
ENDBRANCH   1   4
BRANCH   1  32
ATOM     32  C   ARG A   4      26.567  70.038   8.105  0.00  0.00    +0.241 C 
ATOM     33  N   GLY A   5      26.454  71.130   8.868  0.00  0.00    -0.295 N 
ATOM     34  H   GLY A   5      25.586  71.698   8.795  0.00  0.00    +0.150 HD
ATOM     35  O   ARG A   4      27.619  69.395   7.990  0.00  0.00    -0.273 OA
BRANCH  33  36
ATOM     36  CA  GLY A   5      27.497  71.565   9.803  0.00  0.00    +0.176 C 
BRANCH  36  37
ATOM     37  C   GLY A   5      28.514  72.570   9.292  0.00  0.00    +0.243 C 
ATOM     38  O   GLY A   5      29.349  73.076  10.074  0.00  0.00    -0.273 OA
ATOM     39  N   LEU A   6      28.453  72.875   7.998  0.00  0.00    -0.297 N 
ATOM     40  H   LEU A   6      27.711  72.448   7.407  0.00  0.00    +0.150 HD
BRANCH  39  41
ATOM     41  CA  LEU A   6      29.411  73.801   7.391  0.00  0.00    +0.149 C 
BRANCH  41  42
ATOM     42  C   LEU A   6      29.168  75.241   7.886  0.00  0.00    +0.241 C 
ATOM     43  O   LEU A   6      30.124  75.981   8.116  0.00  0.00    -0.273 OA
ATOM     44  N   GLY A   7      27.893  75.601   8.052  0.00  0.00    -0.296 N 
ATOM     45  H   GLY A   7      27.147  74.919   7.806  0.00  0.00    +0.150 HD
BRANCH  44  46
ATOM     46  CA  GLY A   7      27.499  76.915   8.566  0.00  0.00    +0.163 C 
BRANCH  46  47
ATOM     47  C   GLY A   7      27.801  78.087   7.643  0.00  0.00    +0.229 C 
ATOM     48  O   GLY A   7      28.097  79.188   8.105  0.00  0.00    -0.286 OA
ENDBRANCH  46  47
ENDBRANCH  44  46
ENDBRANCH  41  42
BRANCH  41  49
ATOM     49  CB  LEU A   6      29.359  73.713   5.856  0.00  0.00    +0.029 C 
BRANCH  49  50
ATOM     50  CG  LEU A   6      30.184  74.707   5.016  0.00  0.00    +0.002 C 
ATOM     51  CD2 LEU A   6      31.681  74.672   5.416  0.00  0.00    +0.000 C 
ATOM     52  CD1 LEU A   6      29.991  74.504   3.526  0.00  0.00    +0.000 C 
ENDBRANCH  49  50
ENDBRANCH  41  49
ENDBRANCH  39  41
ENDBRANCH  36  37
ENDBRANCH  33  36
ENDBRANCH   1  32
BRANCH   1  53
ATOM     53  CB  ARG A   4      25.648  68.908   6.042  0.00  0.00    +0.033 C 
BRANCH  53  54
ATOM     54  CG  ARG A   4      24.430  68.332   5.257  0.00  0.00    +0.045 C 
BRANCH  54  55
ATOM     55  CD  ARG A   4      23.621  67.366   6.129  0.00  0.00    +0.174 C 
BRANCH  55  56
ATOM     56  NE  ARG A   4      22.535  66.648   5.448  0.00  0.00    -0.265 N 
ATOM     57  CZ  ARG A   4      21.326  67.152   5.175  0.00  0.00    +0.342 C 
ATOM     58  NH2 ARG A   4      21.070  68.438   5.390  0.00  0.00    -0.292 N 
ATOM     59 HH21 ARG A   4      21.811  69.059   5.773  0.00  0.00    +0.255 HD
ATOM     60 HH22 ARG A   4      20.128  68.824   5.176  0.00  0.00    +0.255 HD
ATOM     61  NH1 ARG A   4      20.386  66.389   4.617  0.00  0.00    -0.292 N 
ATOM     62 HH11 ARG A   4      19.449  66.788   4.408  0.00  0.00    +0.255 HD
ATOM     63 HH12 ARG A   4      20.590  65.395   4.391  0.00  0.00    +0.255 HD
ATOM     64  HE  ARG A   4      22.721  65.668   5.154  0.00  0.00    +0.259 HD
ENDBRANCH  55  56
ENDBRANCH  54  55
ENDBRANCH  53  54
ENDBRANCH   1  53
TORSDOF 27
REMARK  Name = ../refined-set-2016/3ejq/3ejq_pocket.pdb
REMARK  160 active torsions:
REMARK  status: ('A' for Active; 'I' for Inactive)
REMARK    1  A    between atoms: _1  and  _3
REMARK    2  A    between atoms: _14  and  _17
REMARK    3  A    between atoms: _17  and  _18
REMARK    4  A    between atoms: _25  and  _26
REMARK    5  A    between atoms: _33  and  _34
REMARK    6  A    between atoms: _39  and  _41
REMARK    7  A    between atoms: _41  and  _42
REMARK    8  A    between atoms: _44  and  _46
REMARK    9  A    between atoms: _46  and  _47
REMARK   10  A    between atoms: _46  and  _49
REMARK   11  A    between atoms: _49  and  _50
REMARK   12  A    between atoms: _60  and  _62
REMARK   13  A    between atoms: _62  and  _63
REMARK   14  A    between atoms: _62  and  _65
REMARK   15  A    between atoms: _65  and  _66
REMARK   16  A    between atoms: _69  and  _71
REMARK   17  A    between atoms: _71  and  _72
REMARK   18  A    between atoms: _71  and  _74
REMARK   19  A    between atoms: _74  and  _75
REMARK   20  A    between atoms: _80  and  _81
REMARK   21  A    between atoms: _83  and  _85
REMARK   22  A    between atoms: _85  and  _86
REMARK   23  A    between atoms: _85  and  _88
REMARK   24  A    between atoms: _88  and  _89
REMARK   25  A    between atoms: _89  and  _90
REMARK   26  A    between atoms: _93  and  _95
REMARK   27  A    between atoms: _95  and  _96
REMARK   28  A    between atoms: _95  and  _98
REMARK   29  A    between atoms: _98  and  _99
REMARK   30  A    between atoms: _99  and  _100
REMARK   31  A    between atoms: _102  and  _104
REMARK   32  A    between atoms: _104  and  _105
REMARK   33  A    between atoms: _104  and  _107
REMARK   34  A    between atoms: _107  and  _108
REMARK   35  A    between atoms: _111  and  _113
REMARK   36  A    between atoms: _113  and  _114
REMARK   37  A    between atoms: _113  and  _116
REMARK   38  A    between atoms: _116  and  _117
REMARK   39  A    between atoms: _117  and  _119
REMARK   40  A    between atoms: _119  and  ZN_433
REMARK   41  A    between atoms: _121  and  _122
REMARK   42  A    between atoms: _127  and  _129
REMARK   43  A    between atoms: _129  and  _130
REMARK   44  A    between atoms: _129  and  _132
REMARK   45  A    between atoms: _132  and  _133
REMARK   46  A    between atoms: _139  and  _141
REMARK   47  A    between atoms: _141  and  _142
REMARK   48  A    between atoms: _141  and  _144
REMARK   49  A    between atoms: _144  and  _145
REMARK   50  A    between atoms: _145  and  _146
REMARK   51  A    between atoms: _151  and  _153
REMARK   52  A    between atoms: _153  and  _154
REMARK   53  A    between atoms: _153  and  _156
REMARK   54  A    between atoms: _156  and  _157
REMARK   55  A    between atoms: _157  and  _158
REMARK   56  A    between atoms: _158  and  _159
REMARK   57  A    between atoms: _168  and  _170
REMARK   58  A    between atoms: _170  and  _171
REMARK   59  A    between atoms: _170  and  _173
REMARK   60  A    between atoms: _173  and  _174
REMARK   61  A    between atoms: _179  and  _180
REMARK   62  A    between atoms: _182  and  _184
REMARK   63  A    between atoms: _184  and  _185
REMARK   64  A    between atoms: _184  and  _187
REMARK   65  A    between atoms: _187  and  _188
REMARK   66  A    between atoms: _190  and  _192
REMARK   67  A    between atoms: _192  and  _193
REMARK   68  A    between atoms: _192  and  _195
REMARK   69  A    between atoms: _195  and  _196
REMARK   70  A    between atoms: _201  and  _202
REMARK   71  A    between atoms: _204  and  _206
REMARK   72  A    between atoms: _206  and  _207
REMARK   73  A    between atoms: _206  and  _209
REMARK   74  A    between atoms: _209  and  _210
REMARK   75  A    between atoms: _213  and  _215
REMARK   76  A    between atoms: _215  and  _216
REMARK   77  A    between atoms: _215  and  _218
REMARK   78  A    between atoms: _218  and  _219
REMARK   79  A    between atoms: _222  and  _224
REMARK   80  A    between atoms: _224  and  _225
REMARK   81  A    between atoms: _224  and  _227
REMARK   82  A    between atoms: _227  and  _228
REMARK   83  A    between atoms: _234  and  _236
REMARK   84  A    between atoms: _236  and  _237
REMARK   85  A    between atoms: _236  and  _239
REMARK   86  A    between atoms: _239  and  _240
REMARK   87  A    between atoms: _245  and  _246
REMARK   88  A    between atoms: _248  and  _250
REMARK   89  A    between atoms: _250  and  _251
REMARK   90  A    between atoms: _250  and  _253
REMARK   91  A    between atoms: _253  and  _254
REMARK   92  A    between atoms: _257  and  _259
REMARK   93  A    between atoms: _259  and  _260
REMARK   94  A    between atoms: _259  and  _262
REMARK   95  A    between atoms: _262  and  _263
REMARK   96  A    between atoms: _263  and  _264
REMARK   97  A    between atoms: _264  and  _265
REMARK   98  A    between atoms: _274  and  _276
REMARK   99  A    between atoms: _276  and  _277
REMARK  100  A    between atoms: _276  and  _279
REMARK  101  A    between atoms: _279  and  _280
REMARK  102  A    between atoms: _290  and  _292
REMARK  103  A    between atoms: _292  and  _293
REMARK  104  A    between atoms: _292  and  _295
REMARK  105  A    between atoms: _295  and  _296
REMARK  106  A    between atoms: _301  and  _303
REMARK  107  A    between atoms: _303  and  _304
REMARK  108  A    between atoms: _303  and  _306
REMARK  109  A    between atoms: _306  and  _307
REMARK  110  A    between atoms: _311  and  ZN_433
REMARK  111  A    between atoms: _312  and  _314
REMARK  112  A    between atoms: _314  and  _315
REMARK  113  A    between atoms: _314  and  _317
REMARK  114  A    between atoms: _317  and  _318
REMARK  115  A    between atoms: _321  and  _323
REMARK  116  A    between atoms: _323  and  _324
REMARK  117  A    between atoms: _326  and  _328
REMARK  118  A    between atoms: _328  and  _329
REMARK  119  A    between atoms: _328  and  _331
REMARK  120  A    between atoms: _331  and  _332
REMARK  121  A    between atoms: _335  and  _337
REMARK  122  A    between atoms: _337  and  _338
REMARK  123  A    between atoms: _340  and  _342
REMARK  124  A    between atoms: _342  and  _343
REMARK  125  A    between atoms: _342  and  _345
REMARK  126  A    between atoms: _345  and  _346
REMARK  127  A    between atoms: _349  and  _351
REMARK  128  A    between atoms: _351  and  _352
REMARK  129  A    between atoms: _355  and  _357
REMARK  130  A    between atoms: _357  and  _358
REMARK  131  A    between atoms: _357  and  _360
REMARK  132  A    between atoms: _360  and  _361
REMARK  133  A    between atoms: _366  and  _367
REMARK  134  A    between atoms: _369  and  _371
REMARK  135  A    between atoms: _371  and  _372
REMARK  136  A    between atoms: _371  and  _374
REMARK  137  A    between atoms: _374  and  _375
REMARK  138  A    between atoms: _378  and  _380
REMARK  139  A    between atoms: _380  and  _381
REMARK  140  A    between atoms: _380  and  _383
REMARK  141  A    between atoms: _383  and  _384
REMARK  142  A    between atoms: _387  and  _389
REMARK  143  A    between atoms: _389  and  _390
REMARK  144  A    between atoms: _389  and  _392
REMARK  145  A    between atoms: _392  and  _393
REMARK  146  A    between atoms: _393  and  _394
REMARK  147  A    between atoms: _397  and  _399
REMARK  148  A    between atoms: _399  and  _400
REMARK  149  A    between atoms: _399  and  _402
REMARK  150  A    between atoms: _402  and  _403
REMARK  151  A    between atoms: _403  and  _404
REMARK  152  A    between atoms: _404  and  _405
REMARK  153  A    between atoms: _414  and  _416
REMARK  154  A    between atoms: _416  and  _417
REMARK  155  A    between atoms: _419  and  _421
REMARK  156  A    between atoms: _421  and  _422
REMARK  157  A    between atoms: _421  and  _424
REMARK  158  A    between atoms: _424  and  _425
REMARK  159  A    between atoms: _428  and  _430
REMARK  160  A    between atoms: _430  and  _431
REMARK                            x       y       z     vdW  Elec       q    Type
REMARK                         _______ _______ _______ _____ _____    ______ ____
ROOT
ATOM      1  O   HOH     1      25.581  65.915  17.596  0.00  0.00    +0.000 OA
ENDROOT
TORSDOF 0
REMARK  Name = ../refined-set-2016/3ejq/3ejq_pocket.pdb
REMARK  160 active torsions:
REMARK  status: ('A' for Active; 'I' for Inactive)
REMARK    1  A    between atoms: _1  and  _3
REMARK    2  A    between atoms: _14  and  _17
REMARK    3  A    between atoms: _17  and  _18
REMARK    4  A    between atoms: _25  and  _26
REMARK    5  A    between atoms: _33  and  _34
REMARK    6  A    between atoms: _39  and  _41
REMARK    7  A    between atoms: _41  and  _42
REMARK    8  A    between atoms: _44  and  _46
REMARK    9  A    between atoms: _46  and  _47
REMARK   10  A    between atoms: _46  and  _49
REMARK   11  A    between atoms: _49  and  _50
REMARK   12  A    between atoms: _60  and  _62
REMARK   13  A    between atoms: _62  and  _63
REMARK   14  A    between atoms: _62  and  _65
REMARK   15  A    between atoms: _65  and  _66
REMARK   16  A    between atoms: _69  and  _71
REMARK   17  A    between atoms: _71  and  _72
REMARK   18  A    between atoms: _71  and  _74
REMARK   19  A    between atoms: _74  and  _75
REMARK   20  A    between atoms: _80  and  _81
REMARK   21  A    between atoms: _83  and  _85
REMARK   22  A    between atoms: _85  and  _86
REMARK   23  A    between atoms: _85  and  _88
REMARK   24  A    between atoms: _88  and  _89
REMARK   25  A    between atoms: _89  and  _90
REMARK   26  A    between atoms: _93  and  _95
REMARK   27  A    between atoms: _95  and  _96
REMARK   28  A    between atoms: _95  and  _98
REMARK   29  A    between atoms: _98  and  _99
REMARK   30  A    between atoms: _99  and  _100
REMARK   31  A    between atoms: _102  and  _104
REMARK   32  A    between atoms: _104  and  _105
REMARK   33  A    between atoms: _104  and  _107
REMARK   34  A    between atoms: _107  and  _108
REMARK   35  A    between atoms: _111  and  _113
REMARK   36  A    between atoms: _113  and  _114
REMARK   37  A    between atoms: _113  and  _116
REMARK   38  A    between atoms: _116  and  _117
REMARK   39  A    between atoms: _117  and  _119
REMARK   40  A    between atoms: _119  and  ZN_433
REMARK   41  A    between atoms: _121  and  _122
REMARK   42  A    between atoms: _127  and  _129
REMARK   43  A    between atoms: _129  and  _130
REMARK   44  A    between atoms: _129  and  _132
REMARK   45  A    between atoms: _132  and  _133
REMARK   46  A    between atoms: _139  and  _141
REMARK   47  A    between atoms: _141  and  _142
REMARK   48  A    between atoms: _141  and  _144
REMARK   49  A    between atoms: _144  and  _145
REMARK   50  A    between atoms: _145  and  _146
REMARK   51  A    between atoms: _151  and  _153
REMARK   52  A    between atoms: _153  and  _154
REMARK   53  A    between atoms: _153  and  _156
REMARK   54  A    between atoms: _156  and  _157
REMARK   55  A    between atoms: _157  and  _158
REMARK   56  A    between atoms: _158  and  _159
REMARK   57  A    between atoms: _168  and  _170
REMARK   58  A    between atoms: _170  and  _171
REMARK   59  A    between atoms: _170  and  _173
REMARK   60  A    between atoms: _173  and  _174
REMARK   61  A    between atoms: _179  and  _180
REMARK   62  A    between atoms: _182  and  _184
REMARK   63  A    between atoms: _184  and  _185
REMARK   64  A    between atoms: _184  and  _187
REMARK   65  A    between atoms: _187  and  _188
REMARK   66  A    between atoms: _190  and  _192
REMARK   67  A    between atoms: _192  and  _193
REMARK   68  A    between atoms: _192  and  _195
REMARK   69  A    between atoms: _195  and  _196
REMARK   70  A    between atoms: _201  and  _202
REMARK   71  A    between atoms: _204  and  _206
REMARK   72  A    between atoms: _206  and  _207
REMARK   73  A    between atoms: _206  and  _209
REMARK   74  A    between atoms: _209  and  _210
REMARK   75  A    between atoms: _213  and  _215
REMARK   76  A    between atoms: _215  and  _216
REMARK   77  A    between atoms: _215  and  _218
REMARK   78  A    between atoms: _218  and  _219
REMARK   79  A    between atoms: _222  and  _224
REMARK   80  A    between atoms: _224  and  _225
REMARK   81  A    between atoms: _224  and  _227
REMARK   82  A    between atoms: _227  and  _228
REMARK   83  A    between atoms: _234  and  _236
REMARK   84  A    between atoms: _236  and  _237
REMARK   85  A    between atoms: _236  and  _239
REMARK   86  A    between atoms: _239  and  _240
REMARK   87  A    between atoms: _245  and  _246
REMARK   88  A    between atoms: _248  and  _250
REMARK   89  A    between atoms: _250  and  _251
REMARK   90  A    between atoms: _250  and  _253
REMARK   91  A    between atoms: _253  and  _254
REMARK   92  A    between atoms: _257  and  _259
REMARK   93  A    between atoms: _259  and  _260
REMARK   94  A    between atoms: _259  and  _262
REMARK   95  A    between atoms: _262  and  _263
REMARK   96  A    between atoms: _263  and  _264
REMARK   97  A    between atoms: _264  and  _265
REMARK   98  A    between atoms: _274  and  _276
REMARK   99  A    between atoms: _276  and  _277
REMARK  100  A    between atoms: _276  and  _279
REMARK  101  A    between atoms: _279  and  _280
REMARK  102  A    between atoms: _290  and  _292
REMARK  103  A    between atoms: _292  and  _293
REMARK  104  A    between atoms: _292  and  _295
REMARK  105  A    between atoms: _295  and  _296
REMARK  106  A    between atoms: _301  and  _303
REMARK  107  A    between atoms: _303  and  _304
REMARK  108  A    between atoms: _303  and  _306
REMARK  109  A    between atoms: _306  and  _307
REMARK  110  A    between atoms: _311  and  ZN_433
REMARK  111  A    between atoms: _312  and  _314
REMARK  112  A    between atoms: _314  and  _315
REMARK  113  A    between atoms: _314  and  _317
REMARK  114  A    between atoms: _317  and  _318
REMARK  115  A    between atoms: _321  and  _323
REMARK  116  A    between atoms: _323  and  _324
REMARK  117  A    between atoms: _326  and  _328
REMARK  118  A    between atoms: _328  and  _329
REMARK  119  A    between atoms: _328  and  _331
REMARK  120  A    between atoms: _331  and  _332
REMARK  121  A    between atoms: _335  and  _337
REMARK  122  A    between atoms: _337  and  _338
REMARK  123  A    between atoms: _340  and  _342
REMARK  124  A    between atoms: _342  and  _343
REMARK  125  A    between atoms: _342  and  _345
REMARK  126  A    between atoms: _345  and  _346
REMARK  127  A    between atoms: _349  and  _351
REMARK  128  A    between atoms: _351  and  _352
REMARK  129  A    between atoms: _355  and  _357
REMARK  130  A    between atoms: _357  and  _358
REMARK  131  A    between atoms: _357  and  _360
REMARK  132  A    between atoms: _360  and  _361
REMARK  133  A    between atoms: _366  and  _367
REMARK  134  A    between atoms: _369  and  _371
REMARK  135  A    between atoms: _371  and  _372
REMARK  136  A    between atoms: _371  and  _374
REMARK  137  A    between atoms: _374  and  _375
REMARK  138  A    between atoms: _378  and  _380
REMARK  139  A    between atoms: _380  and  _381
REMARK  140  A    between atoms: _380  and  _383
REMARK  141  A    between atoms: _383  and  _384
REMARK  142  A    between atoms: _387  and  _389
REMARK  143  A    between atoms: _389  and  _390
REMARK  144  A    between atoms: _389  and  _392
REMARK  145  A    between atoms: _392  and  _393
REMARK  146  A    between atoms: _393  and  _394
REMARK  147  A    between atoms: _397  and  _399
REMARK  148  A    between atoms: _399  and  _400
REMARK  149  A    between atoms: _399  and  _402
REMARK  150  A    between atoms: _402  and  _403
REMARK  151  A    between atoms: _403  and  _404
REMARK  152  A    between atoms: _404  and  _405
REMARK  153  A    between atoms: _414  and  _416
REMARK  154  A    between atoms: _416  and  _417
REMARK  155  A    between atoms: _419  and  _421
REMARK  156  A    between atoms: _421  and  _422
REMARK  157  A    between atoms: _421  and  _424
REMARK  158  A    between atoms: _424  and  _425
REMARK  159  A    between atoms: _428  and  _430
REMARK  160  A    between atoms: _430  and  _431
REMARK                            x       y       z     vdW  Elec       q    Type
REMARK                         _______ _______ _______ _____ _____    ______ ____
ROOT
ATOM      1  O   HOH     1      26.505  63.489  17.142  0.00  0.00    +0.000 OA
ENDROOT
TORSDOF 0
REMARK  Name = ../refined-set-2016/3ejq/3ejq_pocket.pdb
REMARK  160 active torsions:
REMARK  status: ('A' for Active; 'I' for Inactive)
REMARK    1  A    between atoms: _1  and  _3
REMARK    2  A    between atoms: _14  and  _17
REMARK    3  A    between atoms: _17  and  _18
REMARK    4  A    between atoms: _25  and  _26
REMARK    5  A    between atoms: _33  and  _34
REMARK    6  A    between atoms: _39  and  _41
REMARK    7  A    between atoms: _41  and  _42
REMARK    8  A    between atoms: _44  and  _46
REMARK    9  A    between atoms: _46  and  _47
REMARK   10  A    between atoms: _46  and  _49
REMARK   11  A    between atoms: _49  and  _50
REMARK   12  A    between atoms: _60  and  _62
REMARK   13  A    between atoms: _62  and  _63
REMARK   14  A    between atoms: _62  and  _65
REMARK   15  A    between atoms: _65  and  _66
REMARK   16  A    between atoms: _69  and  _71
REMARK   17  A    between atoms: _71  and  _72
REMARK   18  A    between atoms: _71  and  _74
REMARK   19  A    between atoms: _74  and  _75
REMARK   20  A    between atoms: _80  and  _81
REMARK   21  A    between atoms: _83  and  _85
REMARK   22  A    between atoms: _85  and  _86
REMARK   23  A    between atoms: _85  and  _88
REMARK   24  A    between atoms: _88  and  _89
REMARK   25  A    between atoms: _89  and  _90
REMARK   26  A    between atoms: _93  and  _95
REMARK   27  A    between atoms: _95  and  _96
REMARK   28  A    between atoms: _95  and  _98
REMARK   29  A    between atoms: _98  and  _99
REMARK   30  A    between atoms: _99  and  _100
REMARK   31  A    between atoms: _102  and  _104
REMARK   32  A    between atoms: _104  and  _105
REMARK   33  A    between atoms: _104  and  _107
REMARK   34  A    between atoms: _107  and  _108
REMARK   35  A    between atoms: _111  and  _113
REMARK   36  A    between atoms: _113  and  _114
REMARK   37  A    between atoms: _113  and  _116
REMARK   38  A    between atoms: _116  and  _117
REMARK   39  A    between atoms: _117  and  _119
REMARK   40  A    between atoms: _119  and  ZN_433
REMARK   41  A    between atoms: _121  and  _122
REMARK   42  A    between atoms: _127  and  _129
REMARK   43  A    between atoms: _129  and  _130
REMARK   44  A    between atoms: _129  and  _132
REMARK   45  A    between atoms: _132  and  _133
REMARK   46  A    between atoms: _139  and  _141
REMARK   47  A    between atoms: _141  and  _142
REMARK   48  A    between atoms: _141  and  _144
REMARK   49  A    between atoms: _144  and  _145
REMARK   50  A    between atoms: _145  and  _146
REMARK   51  A    between atoms: _151  and  _153
REMARK   52  A    between atoms: _153  and  _154
REMARK   53  A    between atoms: _153  and  _156
REMARK   54  A    between atoms: _156  and  _157
REMARK   55  A    between atoms: _157  and  _158
REMARK   56  A    between atoms: _158  and  _159
REMARK   57  A    between atoms: _168  and  _170
REMARK   58  A    between atoms: _170  and  _171
REMARK   59  A    between atoms: _170  and  _173
REMARK   60  A    between atoms: _173  and  _174
REMARK   61  A    between atoms: _179  and  _180
REMARK   62  A    between atoms: _182  and  _184
REMARK   63  A    between atoms: _184  and  _185
REMARK   64  A    between atoms: _184  and  _187
REMARK   65  A    between atoms: _187  and  _188
REMARK   66  A    between atoms: _190  and  _192
REMARK   67  A    between atoms: _192  and  _193
REMARK   68  A    between atoms: _192  and  _195
REMARK   69  A    between atoms: _195  and  _196
REMARK   70  A    between atoms: _201  and  _202
REMARK   71  A    between atoms: _204  and  _206
REMARK   72  A    between atoms: _206  and  _207
REMARK   73  A    between atoms: _206  and  _209
REMARK   74  A    between atoms: _209  and  _210
REMARK   75  A    between atoms: _213  and  _215
REMARK   76  A    between atoms: _215  and  _216
REMARK   77  A    between atoms: _215  and  _218
REMARK   78  A    between atoms: _218  and  _219
REMARK   79  A    between atoms: _222  and  _224
REMARK   80  A    between atoms: _224  and  _225
REMARK   81  A    between atoms: _224  and  _227
REMARK   82  A    between atoms: _227  and  _228
REMARK   83  A    between atoms: _234  and  _236
REMARK   84  A    between atoms: _236  and  _237
REMARK   85  A    between atoms: _236  and  _239
REMARK   86  A    between atoms: _239  and  _240
REMARK   87  A    between atoms: _245  and  _246
REMARK   88  A    between atoms: _248  and  _250
REMARK   89  A    between atoms: _250  and  _251
REMARK   90  A    between atoms: _250  and  _253
REMARK   91  A    between atoms: _253  and  _254
REMARK   92  A    between atoms: _257  and  _259
REMARK   93  A    between atoms: _259  and  _260
REMARK   94  A    between atoms: _259  and  _262
REMARK   95  A    between atoms: _262  and  _263
REMARK   96  A    between atoms: _263  and  _264
REMARK   97  A    between atoms: _264  and  _265
REMARK   98  A    between atoms: _274  and  _276
REMARK   99  A    between atoms: _276  and  _277
REMARK  100  A    between atoms: _276  and  _279
REMARK  101  A    between atoms: _279  and  _280
REMARK  102  A    between atoms: _290  and  _292
REMARK  103  A    between atoms: _292  and  _293
REMARK  104  A    between atoms: _292  and  _295
REMARK  105  A    between atoms: _295  and  _296
REMARK  106  A    between atoms: _301  and  _303
REMARK  107  A    between atoms: _303  and  _304
REMARK  108  A    between atoms: _303  and  _306
REMARK  109  A    between atoms: _306  and  _307
REMARK  110  A    between atoms: _311  and  ZN_433
REMARK  111  A    between atoms: _312  and  _314
REMARK  112  A    between atoms: _314  and  _315
REMARK  113  A    between atoms: _314  and  _317
REMARK  114  A    between atoms: _317  and  _318
REMARK  115  A    between atoms: _321  and  _323
REMARK  116  A    between atoms: _323  and  _324
REMARK  117  A    between atoms: _326  and  _328
REMARK  118  A    between atoms: _328  and  _329
REMARK  119  A    between atoms: _328  and  _331
REMARK  120  A    between atoms: _331  and  _332
REMARK  121  A    between atoms: _335  and  _337
REMARK  122  A    between atoms: _337  and  _338
REMARK  123  A    between atoms: _340  and  _342
REMARK  124  A    between atoms: _342  and  _343
REMARK  125  A    between atoms: _342  and  _345
REMARK  126  A    between atoms: _345  and  _346
REMARK  127  A    between atoms: _349  and  _351
REMARK  128  A    between atoms: _351  and  _352
REMARK  129  A    between atoms: _355  and  _357
REMARK  130  A    between atoms: _357  and  _358
REMARK  131  A    between atoms: _357  and  _360
REMARK  132  A    between atoms: _360  and  _361
REMARK  133  A    between atoms: _366  and  _367
REMARK  134  A    between atoms: _369  and  _371
REMARK  135  A    between atoms: _371  and  _372
REMARK  136  A    between atoms: _371  and  _374
REMARK  137  A    between atoms: _374  and  _375
REMARK  138  A    between atoms: _378  and  _380
REMARK  139  A    between atoms: _380  and  _381
REMARK  140  A    between atoms: _380  and  _383
REMARK  141  A    between atoms: _383  and  _384
REMARK  142  A    between atoms: _387  and  _389
REMARK  143  A    between atoms: _389  and  _390
REMARK  144  A    between atoms: _389  and  _392
REMARK  145  A    between atoms: _392  and  _393
REMARK  146  A    between atoms: _393  and  _394
REMARK  147  A    between atoms: _397  and  _399
REMARK  148  A    between atoms: _399  and  _400
REMARK  149  A    between atoms: _399  and  _402
REMARK  150  A    between atoms: _402  and  _403
REMARK  151  A    between atoms: _403  and  _404
REMARK  152  A    between atoms: _404  and  _405
REMARK  153  A    between atoms: _414  and  _416
REMARK  154  A    between atoms: _416  and  _417
REMARK  155  A    between atoms: _419  and  _421
REMARK  156  A    between atoms: _421  and  _422
REMARK  157  A    between atoms: _421  and  _424
REMARK  158  A    between atoms: _424  and  _425
REMARK  159  A    between atoms: _428  and  _430
REMARK  160  A    between atoms: _430  and  _431
REMARK                            x       y       z     vdW  Elec       q    Type
REMARK                         _______ _______ _______ _____ _____    ______ ____
ROOT
ATOM      1  O   HOH     1      28.578  64.711  15.191  0.00  0.00    +0.000 OA
ENDROOT
TORSDOF 0
REMARK  Name = ../refined-set-2016/3ejq/3ejq_pocket.pdb
REMARK  160 active torsions:
REMARK  status: ('A' for Active; 'I' for Inactive)
REMARK    1  A    between atoms: _1  and  _3
REMARK    2  A    between atoms: _14  and  _17
REMARK    3  A    between atoms: _17  and  _18
REMARK    4  A    between atoms: _25  and  _26
REMARK    5  A    between atoms: _33  and  _34
REMARK    6  A    between atoms: _39  and  _41
REMARK    7  A    between atoms: _41  and  _42
REMARK    8  A    between atoms: _44  and  _46
REMARK    9  A    between atoms: _46  and  _47
REMARK   10  A    between atoms: _46  and  _49
REMARK   11  A    between atoms: _49  and  _50
REMARK   12  A    between atoms: _60  and  _62
REMARK   13  A    between atoms: _62  and  _63
REMARK   14  A    between atoms: _62  and  _65
REMARK   15  A    between atoms: _65  and  _66
REMARK   16  A    between atoms: _69  and  _71
REMARK   17  A    between atoms: _71  and  _72
REMARK   18  A    between atoms: _71  and  _74
REMARK   19  A    between atoms: _74  and  _75
REMARK   20  A    between atoms: _80  and  _81
REMARK   21  A    between atoms: _83  and  _85
REMARK   22  A    between atoms: _85  and  _86
REMARK   23  A    between atoms: _85  and  _88
REMARK   24  A    between atoms: _88  and  _89
REMARK   25  A    between atoms: _89  and  _90
REMARK   26  A    between atoms: _93  and  _95
REMARK   27  A    between atoms: _95  and  _96
REMARK   28  A    between atoms: _95  and  _98
REMARK   29  A    between atoms: _98  and  _99
REMARK   30  A    between atoms: _99  and  _100
REMARK   31  A    between atoms: _102  and  _104
REMARK   32  A    between atoms: _104  and  _105
REMARK   33  A    between atoms: _104  and  _107
REMARK   34  A    between atoms: _107  and  _108
REMARK   35  A    between atoms: _111  and  _113
REMARK   36  A    between atoms: _113  and  _114
REMARK   37  A    between atoms: _113  and  _116
REMARK   38  A    between atoms: _116  and  _117
REMARK   39  A    between atoms: _117  and  _119
REMARK   40  A    between atoms: _119  and  ZN_433
REMARK   41  A    between atoms: _121  and  _122
REMARK   42  A    between atoms: _127  and  _129
REMARK   43  A    between atoms: _129  and  _130
REMARK   44  A    between atoms: _129  and  _132
REMARK   45  A    between atoms: _132  and  _133
REMARK   46  A    between atoms: _139  and  _141
REMARK   47  A    between atoms: _141  and  _142
REMARK   48  A    between atoms: _141  and  _144
REMARK   49  A    between atoms: _144  and  _145
REMARK   50  A    between atoms: _145  and  _146
REMARK   51  A    between atoms: _151  and  _153
REMARK   52  A    between atoms: _153  and  _154
REMARK   53  A    between atoms: _153  and  _156
REMARK   54  A    between atoms: _156  and  _157
REMARK   55  A    between atoms: _157  and  _158
REMARK   56  A    between atoms: _158  and  _159
REMARK   57  A    between atoms: _168  and  _170
REMARK   58  A    between atoms: _170  and  _171
REMARK   59  A    between atoms: _170  and  _173
REMARK   60  A    between atoms: _173  and  _174
REMARK   61  A    between atoms: _179  and  _180
REMARK   62  A    between atoms: _182  and  _184
REMARK   63  A    between atoms: _184  and  _185
REMARK   64  A    between atoms: _184  and  _187
REMARK   65  A    between atoms: _187  and  _188
REMARK   66  A    between atoms: _190  and  _192
REMARK   67  A    between atoms: _192  and  _193
REMARK   68  A    between atoms: _192  and  _195
REMARK   69  A    between atoms: _195  and  _196
REMARK   70  A    between atoms: _201  and  _202
REMARK   71  A    between atoms: _204  and  _206
REMARK   72  A    between atoms: _206  and  _207
REMARK   73  A    between atoms: _206  and  _209
REMARK   74  A    between atoms: _209  and  _210
REMARK   75  A    between atoms: _213  and  _215
REMARK   76  A    between atoms: _215  and  _216
REMARK   77  A    between atoms: _215  and  _218
REMARK   78  A    between atoms: _218  and  _219
REMARK   79  A    between atoms: _222  and  _224
REMARK   80  A    between atoms: _224  and  _225
REMARK   81  A    between atoms: _224  and  _227
REMARK   82  A    between atoms: _227  and  _228
REMARK   83  A    between atoms: _234  and  _236
REMARK   84  A    between atoms: _236  and  _237
REMARK   85  A    between atoms: _236  and  _239
REMARK   86  A    between atoms: _239  and  _240
REMARK   87  A    between atoms: _245  and  _246
REMARK   88  A    between atoms: _248  and  _250
REMARK   89  A    between atoms: _250  and  _251
REMARK   90  A    between atoms: _250  and  _253
REMARK   91  A    between atoms: _253  and  _254
REMARK   92  A    between atoms: _257  and  _259
REMARK   93  A    between atoms: _259  and  _260
REMARK   94  A    between atoms: _259  and  _262
REMARK   95  A    between atoms: _262  and  _263
REMARK   96  A    between atoms: _263  and  _264
REMARK   97  A    between atoms: _264  and  _265
REMARK   98  A    between atoms: _274  and  _276
REMARK   99  A    between atoms: _276  and  _277
REMARK  100  A    between atoms: _276  and  _279
REMARK  101  A    between atoms: _279  and  _280
REMARK  102  A    between atoms: _290  and  _292
REMARK  103  A    between atoms: _292  and  _293
REMARK  104  A    between atoms: _292  and  _295
REMARK  105  A    between atoms: _295  and  _296
REMARK  106  A    between atoms: _301  and  _303
REMARK  107  A    between atoms: _303  and  _304
REMARK  108  A    between atoms: _303  and  _306
REMARK  109  A    between atoms: _306  and  _307
REMARK  110  A    between atoms: _311  and  ZN_433
REMARK  111  A    between atoms: _312  and  _314
REMARK  112  A    between atoms: _314  and  _315
REMARK  113  A    between atoms: _314  and  _317
REMARK  114  A    between atoms: _317  and  _318
REMARK  115  A    between atoms: _321  and  _323
REMARK  116  A    between atoms: _323  and  _324
REMARK  117  A    between atoms: _326  and  _328
REMARK  118  A    between atoms: _328  and  _329
REMARK  119  A    between atoms: _328  and  _331
REMARK  120  A    between atoms: _331  and  _332
REMARK  121  A    between atoms: _335  and  _337
REMARK  122  A    between atoms: _337  and  _338
REMARK  123  A    between atoms: _340  and  _342
REMARK  124  A    between atoms: _342  and  _343
REMARK  125  A    between atoms: _342  and  _345
REMARK  126  A    between atoms: _345  and  _346
REMARK  127  A    between atoms: _349  and  _351
REMARK  128  A    between atoms: _351  and  _352
REMARK  129  A    between atoms: _355  and  _357
REMARK  130  A    between atoms: _357  and  _358
REMARK  131  A    between atoms: _357  and  _360
REMARK  132  A    between atoms: _360  and  _361
REMARK  133  A    between atoms: _366  and  _367
REMARK  134  A    between atoms: _369  and  _371
REMARK  135  A    between atoms: _371  and  _372
REMARK  136  A    between atoms: _371  and  _374
REMARK  137  A    between atoms: _374  and  _375
REMARK  138  A    between atoms: _378  and  _380
REMARK  139  A    between atoms: _380  and  _381
REMARK  140  A    between atoms: _380  and  _383
REMARK  141  A    between atoms: _383  and  _384
REMARK  142  A    between atoms: _387  and  _389
REMARK  143  A    between atoms: _389  and  _390
REMARK  144  A    between atoms: _389  and  _392
REMARK  145  A    between atoms: _392  and  _393
REMARK  146  A    between atoms: _393  and  _394
REMARK  147  A    between atoms: _397  and  _399
REMARK  148  A    between atoms: _399  and  _400
REMARK  149  A    between atoms: _399  and  _402
REMARK  150  A    between atoms: _402  and  _403
REMARK  151  A    between atoms: _403  and  _404
REMARK  152  A    between atoms: _404  and  _405
REMARK  153  A    between atoms: _414  and  _416
REMARK  154  A    between atoms: _416  and  _417
REMARK  155  A    between atoms: _419  and  _421
REMARK  156  A    between atoms: _421  and  _422
REMARK  157  A    between atoms: _421  and  _424
REMARK  158  A    between atoms: _424  and  _425
REMARK  159  A    between atoms: _428  and  _430
REMARK  160  A    between atoms: _430  and  _431
REMARK                            x       y       z     vdW  Elec       q    Type
REMARK                         _______ _______ _______ _____ _____    ______ ____
ROOT
ATOM      1  O   HOH     1      29.170  65.765  12.565  0.00  0.00    +0.000 OA
ENDROOT
TORSDOF 0
REMARK  Name = ../refined-set-2016/3ejq/3ejq_pocket.pdb
REMARK  160 active torsions:
REMARK  status: ('A' for Active; 'I' for Inactive)
REMARK    1  A    between atoms: _1  and  _3
REMARK    2  A    between atoms: _14  and  _17
REMARK    3  A    between atoms: _17  and  _18
REMARK    4  A    between atoms: _25  and  _26
REMARK    5  A    between atoms: _33  and  _34
REMARK    6  A    between atoms: _39  and  _41
REMARK    7  A    between atoms: _41  and  _42
REMARK    8  A    between atoms: _44  and  _46
REMARK    9  A    between atoms: _46  and  _47
REMARK   10  A    between atoms: _46  and  _49
REMARK   11  A    between atoms: _49  and  _50
REMARK   12  A    between atoms: _60  and  _62
REMARK   13  A    between atoms: _62  and  _63
REMARK   14  A    between atoms: _62  and  _65
REMARK   15  A    between atoms: _65  and  _66
REMARK   16  A    between atoms: _69  and  _71
REMARK   17  A    between atoms: _71  and  _72
REMARK   18  A    between atoms: _71  and  _74
REMARK   19  A    between atoms: _74  and  _75
REMARK   20  A    between atoms: _80  and  _81
REMARK   21  A    between atoms: _83  and  _85
REMARK   22  A    between atoms: _85  and  _86
REMARK   23  A    between atoms: _85  and  _88
REMARK   24  A    between atoms: _88  and  _89
REMARK   25  A    between atoms: _89  and  _90
REMARK   26  A    between atoms: _93  and  _95
REMARK   27  A    between atoms: _95  and  _96
REMARK   28  A    between atoms: _95  and  _98
REMARK   29  A    between atoms: _98  and  _99
REMARK   30  A    between atoms: _99  and  _100
REMARK   31  A    between atoms: _102  and  _104
REMARK   32  A    between atoms: _104  and  _105
REMARK   33  A    between atoms: _104  and  _107
REMARK   34  A    between atoms: _107  and  _108
REMARK   35  A    between atoms: _111  and  _113
REMARK   36  A    between atoms: _113  and  _114
REMARK   37  A    between atoms: _113  and  _116
REMARK   38  A    between atoms: _116  and  _117
REMARK   39  A    between atoms: _117  and  _119
REMARK   40  A    between atoms: _119  and  ZN_433
REMARK   41  A    between atoms: _121  and  _122
REMARK   42  A    between atoms: _127  and  _129
REMARK   43  A    between atoms: _129  and  _130
REMARK   44  A    between atoms: _129  and  _132
REMARK   45  A    between atoms: _132  and  _133
REMARK   46  A    between atoms: _139  and  _141
REMARK   47  A    between atoms: _141  and  _142
REMARK   48  A    between atoms: _141  and  _144
REMARK   49  A    between atoms: _144  and  _145
REMARK   50  A    between atoms: _145  and  _146
REMARK   51  A    between atoms: _151  and  _153
REMARK   52  A    between atoms: _153  and  _154
REMARK   53  A    between atoms: _153  and  _156
REMARK   54  A    between atoms: _156  and  _157
REMARK   55  A    between atoms: _157  and  _158
REMARK   56  A    between atoms: _158  and  _159
REMARK   57  A    between atoms: _168  and  _170
REMARK   58  A    between atoms: _170  and  _171
REMARK   59  A    between atoms: _170  and  _173
REMARK   60  A    between atoms: _173  and  _174
REMARK   61  A    between atoms: _179  and  _180
REMARK   62  A    between atoms: _182  and  _184
REMARK   63  A    between atoms: _184  and  _185
REMARK   64  A    between atoms: _184  and  _187
REMARK   65  A    between atoms: _187  and  _188
REMARK   66  A    between atoms: _190  and  _192
REMARK   67  A    between atoms: _192  and  _193
REMARK   68  A    between atoms: _192  and  _195
REMARK   69  A    between atoms: _195  and  _196
REMARK   70  A    between atoms: _201  and  _202
REMARK   71  A    between atoms: _204  and  _206
REMARK   72  A    between atoms: _206  and  _207
REMARK   73  A    between atoms: _206  and  _209
REMARK   74  A    between atoms: _209  and  _210
REMARK   75  A    between atoms: _213  and  _215
REMARK   76  A    between atoms: _215  and  _216
REMARK   77  A    between atoms: _215  and  _218
REMARK   78  A    between atoms: _218  and  _219
REMARK   79  A    between atoms: _222  and  _224
REMARK   80  A    between atoms: _224  and  _225
REMARK   81  A    between atoms: _224  and  _227
REMARK   82  A    between atoms: _227  and  _228
REMARK   83  A    between atoms: _234  and  _236
REMARK   84  A    between atoms: _236  and  _237
REMARK   85  A    between atoms: _236  and  _239
REMARK   86  A    between atoms: _239  and  _240
REMARK   87  A    between atoms: _245  and  _246
REMARK   88  A    between atoms: _248  and  _250
REMARK   89  A    between atoms: _250  and  _251
REMARK   90  A    between atoms: _250  and  _253
REMARK   91  A    between atoms: _253  and  _254
REMARK   92  A    between atoms: _257  and  _259
REMARK   93  A    between atoms: _259  and  _260
REMARK   94  A    between atoms: _259  and  _262
REMARK   95  A    between atoms: _262  and  _263
REMARK   96  A    between atoms: _263  and  _264
REMARK   97  A    between atoms: _264  and  _265
REMARK   98  A    between atoms: _274  and  _276
REMARK   99  A    between atoms: _276  and  _277
REMARK  100  A    between atoms: _276  and  _279
REMARK  101  A    between atoms: _279  and  _280
REMARK  102  A    between atoms: _290  and  _292
REMARK  103  A    between atoms: _292  and  _293
REMARK  104  A    between atoms: _292  and  _295
REMARK  105  A    between atoms: _295  and  _296
REMARK  106  A    between atoms: _301  and  _303
REMARK  107  A    between atoms: _303  and  _304
REMARK  108  A    between atoms: _303  and  _306
REMARK  109  A    between atoms: _306  and  _307
REMARK  110  A    between atoms: _311  and  ZN_433
REMARK  111  A    between atoms: _312  and  _314
REMARK  112  A    between atoms: _314  and  _315
REMARK  113  A    between atoms: _314  and  _317
REMARK  114  A    between atoms: _317  and  _318
REMARK  115  A    between atoms: _321  and  _323
REMARK  116  A    between atoms: _323  and  _324
REMARK  117  A    between atoms: _326  and  _328
REMARK  118  A    between atoms: _328  and  _329
REMARK  119  A    between atoms: _328  and  _331
REMARK  120  A    between atoms: _331  and  _332
REMARK  121  A    between atoms: _335  and  _337
REMARK  122  A    between atoms: _337  and  _338
REMARK  123  A    between atoms: _340  and  _342
REMARK  124  A    between atoms: _342  and  _343
REMARK  125  A    between atoms: _342  and  _345
REMARK  126  A    between atoms: _345  and  _346
REMARK  127  A    between atoms: _349  and  _351
REMARK  128  A    between atoms: _351  and  _352
REMARK  129  A    between atoms: _355  and  _357
REMARK  130  A    between atoms: _357  and  _358
REMARK  131  A    between atoms: _357  and  _360
REMARK  132  A    between atoms: _360  and  _361
REMARK  133  A    between atoms: _366  and  _367
REMARK  134  A    between atoms: _369  and  _371
REMARK  135  A    between atoms: _371  and  _372
REMARK  136  A    between atoms: _371  and  _374
REMARK  137  A    between atoms: _374  and  _375
REMARK  138  A    between atoms: _378  and  _380
REMARK  139  A    between atoms: _380  and  _381
REMARK  140  A    between atoms: _380  and  _383
REMARK  141  A    between atoms: _383  and  _384
REMARK  142  A    between atoms: _387  and  _389
REMARK  143  A    between atoms: _389  and  _390
REMARK  144  A    between atoms: _389  and  _392
REMARK  145  A    between atoms: _392  and  _393
REMARK  146  A    between atoms: _393  and  _394
REMARK  147  A    between atoms: _397  and  _399
REMARK  148  A    between atoms: _399  and  _400
REMARK  149  A    between atoms: _399  and  _402
REMARK  150  A    between atoms: _402  and  _403
REMARK  151  A    between atoms: _403  and  _404
REMARK  152  A    between atoms: _404  and  _405
REMARK  153  A    between atoms: _414  and  _416
REMARK  154  A    between atoms: _416  and  _417
REMARK  155  A    between atoms: _419  and  _421
REMARK  156  A    between atoms: _421  and  _422
REMARK  157  A    between atoms: _421  and  _424
REMARK  158  A    between atoms: _424  and  _425
REMARK  159  A    between atoms: _428  and  _430
REMARK  160  A    between atoms: _430  and  _431
REMARK                            x       y       z     vdW  Elec       q    Type
REMARK                         _______ _______ _______ _____ _____    ______ ____
ROOT
ATOM      1  O   HOH     1      28.417  63.594  11.083  0.00  0.00    +0.000 OA
ENDROOT
TORSDOF 0
REMARK  Name = ../refined-set-2016/3ejq/3ejq_pocket.pdb
REMARK  160 active torsions:
REMARK  status: ('A' for Active; 'I' for Inactive)
REMARK    1  A    between atoms: _1  and  _3
REMARK    2  A    between atoms: _14  and  _17
REMARK    3  A    between atoms: _17  and  _18
REMARK    4  A    between atoms: _25  and  _26
REMARK    5  A    between atoms: _33  and  _34
REMARK    6  A    between atoms: _39  and  _41
REMARK    7  A    between atoms: _41  and  _42
REMARK    8  A    between atoms: _44  and  _46
REMARK    9  A    between atoms: _46  and  _47
REMARK   10  A    between atoms: _46  and  _49
REMARK   11  A    between atoms: _49  and  _50
REMARK   12  A    between atoms: _60  and  _62
REMARK   13  A    between atoms: _62  and  _63
REMARK   14  A    between atoms: _62  and  _65
REMARK   15  A    between atoms: _65  and  _66
REMARK   16  A    between atoms: _69  and  _71
REMARK   17  A    between atoms: _71  and  _72
REMARK   18  A    between atoms: _71  and  _74
REMARK   19  A    between atoms: _74  and  _75
REMARK   20  A    between atoms: _80  and  _81
REMARK   21  A    between atoms: _83  and  _85
REMARK   22  A    between atoms: _85  and  _86
REMARK   23  A    between atoms: _85  and  _88
REMARK   24  A    between atoms: _88  and  _89
REMARK   25  A    between atoms: _89  and  _90
REMARK   26  A    between atoms: _93  and  _95
REMARK   27  A    between atoms: _95  and  _96
REMARK   28  A    between atoms: _95  and  _98
REMARK   29  A    between atoms: _98  and  _99
REMARK   30  A    between atoms: _99  and  _100
REMARK   31  A    between atoms: _102  and  _104
REMARK   32  A    between atoms: _104  and  _105
REMARK   33  A    between atoms: _104  and  _107
REMARK   34  A    between atoms: _107  and  _108
REMARK   35  A    between atoms: _111  and  _113
REMARK   36  A    between atoms: _113  and  _114
REMARK   37  A    between atoms: _113  and  _116
REMARK   38  A    between atoms: _116  and  _117
REMARK   39  A    between atoms: _117  and  _119
REMARK   40  A    between atoms: _119  and  ZN_433
REMARK   41  A    between atoms: _121  and  _122
REMARK   42  A    between atoms: _127  and  _129
REMARK   43  A    between atoms: _129  and  _130
REMARK   44  A    between atoms: _129  and  _132
REMARK   45  A    between atoms: _132  and  _133
REMARK   46  A    between atoms: _139  and  _141
REMARK   47  A    between atoms: _141  and  _142
REMARK   48  A    between atoms: _141  and  _144
REMARK   49  A    between atoms: _144  and  _145
REMARK   50  A    between atoms: _145  and  _146
REMARK   51  A    between atoms: _151  and  _153
REMARK   52  A    between atoms: _153  and  _154
REMARK   53  A    between atoms: _153  and  _156
REMARK   54  A    between atoms: _156  and  _157
REMARK   55  A    between atoms: _157  and  _158
REMARK   56  A    between atoms: _158  and  _159
REMARK   57  A    between atoms: _168  and  _170
REMARK   58  A    between atoms: _170  and  _171
REMARK   59  A    between atoms: _170  and  _173
REMARK   60  A    between atoms: _173  and  _174
REMARK   61  A    between atoms: _179  and  _180
REMARK   62  A    between atoms: _182  and  _184
REMARK   63  A    between atoms: _184  and  _185
REMARK   64  A    between atoms: _184  and  _187
REMARK   65  A    between atoms: _187  and  _188
REMARK   66  A    between atoms: _190  and  _192
REMARK   67  A    between atoms: _192  and  _193
REMARK   68  A    between atoms: _192  and  _195
REMARK   69  A    between atoms: _195  and  _196
REMARK   70  A    between atoms: _201  and  _202
REMARK   71  A    between atoms: _204  and  _206
REMARK   72  A    between atoms: _206  and  _207
REMARK   73  A    between atoms: _206  and  _209
REMARK   74  A    between atoms: _209  and  _210
REMARK   75  A    between atoms: _213  and  _215
REMARK   76  A    between atoms: _215  and  _216
REMARK   77  A    between atoms: _215  and  _218
REMARK   78  A    between atoms: _218  and  _219
REMARK   79  A    between atoms: _222  and  _224
REMARK   80  A    between atoms: _224  and  _225
REMARK   81  A    between atoms: _224  and  _227
REMARK   82  A    between atoms: _227  and  _228
REMARK   83  A    between atoms: _234  and  _236
REMARK   84  A    between atoms: _236  and  _237
REMARK   85  A    between atoms: _236  and  _239
REMARK   86  A    between atoms: _239  and  _240
REMARK   87  A    between atoms: _245  and  _246
REMARK   88  A    between atoms: _248  and  _250
REMARK   89  A    between atoms: _250  and  _251
REMARK   90  A    between atoms: _250  and  _253
REMARK   91  A    between atoms: _253  and  _254
REMARK   92  A    between atoms: _257  and  _259
REMARK   93  A    between atoms: _259  and  _260
REMARK   94  A    between atoms: _259  and  _262
REMARK   95  A    between atoms: _262  and  _263
REMARK   96  A    between atoms: _263  and  _264
REMARK   97  A    between atoms: _264  and  _265
REMARK   98  A    between atoms: _274  and  _276
REMARK   99  A    between atoms: _276  and  _277
REMARK  100  A    between atoms: _276  and  _279
REMARK  101  A    between atoms: _279  and  _280
REMARK  102  A    between atoms: _290  and  _292
REMARK  103  A    between atoms: _292  and  _293
REMARK  104  A    between atoms: _292  and  _295
REMARK  105  A    between atoms: _295  and  _296
REMARK  106  A    between atoms: _301  and  _303
REMARK  107  A    between atoms: _303  and  _304
REMARK  108  A    between atoms: _303  and  _306
REMARK  109  A    between atoms: _306  and  _307
REMARK  110  A    between atoms: _311  and  ZN_433
REMARK  111  A    between atoms: _312  and  _314
REMARK  112  A    between atoms: _314  and  _315
REMARK  113  A    between atoms: _314  and  _317
REMARK  114  A    between atoms: _317  and  _318
REMARK  115  A    between atoms: _321  and  _323
REMARK  116  A    between atoms: _323  and  _324
REMARK  117  A    between atoms: _326  and  _328
REMARK  118  A    between atoms: _328  and  _329
REMARK  119  A    between atoms: _328  and  _331
REMARK  120  A    between atoms: _331  and  _332
REMARK  121  A    between atoms: _335  and  _337
REMARK  122  A    between atoms: _337  and  _338
REMARK  123  A    between atoms: _340  and  _342
REMARK  124  A    between atoms: _342  and  _343
REMARK  125  A    between atoms: _342  and  _345
REMARK  126  A    between atoms: _345  and  _346
REMARK  127  A    between atoms: _349  and  _351
REMARK  128  A    between atoms: _351  and  _352
REMARK  129  A    between atoms: _355  and  _357
REMARK  130  A    between atoms: _357  and  _358
REMARK  131  A    between atoms: _357  and  _360
REMARK  132  A    between atoms: _360  and  _361
REMARK  133  A    between atoms: _366  and  _367
REMARK  134  A    between atoms: _369  and  _371
REMARK  135  A    between atoms: _371  and  _372
REMARK  136  A    between atoms: _371  and  _374
REMARK  137  A    between atoms: _374  and  _375
REMARK  138  A    between atoms: _378  and  _380
REMARK  139  A    between atoms: _380  and  _381
REMARK  140  A    between atoms: _380  and  _383
REMARK  141  A    between atoms: _383  and  _384
REMARK  142  A    between atoms: _387  and  _389
REMARK  143  A    between atoms: _389  and  _390
REMARK  144  A    between atoms: _389  and  _392
REMARK  145  A    between atoms: _392  and  _393
REMARK  146  A    between atoms: _393  and  _394
REMARK  147  A    between atoms: _397  and  _399
REMARK  148  A    between atoms: _399  and  _400
REMARK  149  A    between atoms: _399  and  _402
REMARK  150  A    between atoms: _402  and  _403
REMARK  151  A    between atoms: _403  and  _404
REMARK  152  A    between atoms: _404  and  _405
REMARK  153  A    between atoms: _414  and  _416
REMARK  154  A    between atoms: _416  and  _417
REMARK  155  A    between atoms: _419  and  _421
REMARK  156  A    between atoms: _421  and  _422
REMARK  157  A    between atoms: _421  and  _424
REMARK  158  A    between atoms: _424  and  _425
REMARK  159  A    between atoms: _428  and  _430
REMARK  160  A    between atoms: _430  and  _431
REMARK                            x       y       z     vdW  Elec       q    Type
REMARK                         _______ _______ _______ _____ _____    ______ ____
ROOT
ATOM      1  O   HOH     1      26.170  62.267  11.430  0.00  0.00    +0.000 OA
ENDROOT
TORSDOF 0
REMARK  Name = ../refined-set-2016/3ejq/3ejq_pocket.pdb
REMARK  160 active torsions:
REMARK  status: ('A' for Active; 'I' for Inactive)
REMARK    1  A    between atoms: _1  and  _3
REMARK    2  A    between atoms: _14  and  _17
REMARK    3  A    between atoms: _17  and  _18
REMARK    4  A    between atoms: _25  and  _26
REMARK    5  A    between atoms: _33  and  _34
REMARK    6  A    between atoms: _39  and  _41
REMARK    7  A    between atoms: _41  and  _42
REMARK    8  A    between atoms: _44  and  _46
REMARK    9  A    between atoms: _46  and  _47
REMARK   10  A    between atoms: _46  and  _49
REMARK   11  A    between atoms: _49  and  _50
REMARK   12  A    between atoms: _60  and  _62
REMARK   13  A    between atoms: _62  and  _63
REMARK   14  A    between atoms: _62  and  _65
REMARK   15  A    between atoms: _65  and  _66
REMARK   16  A    between atoms: _69  and  _71
REMARK   17  A    between atoms: _71  and  _72
REMARK   18  A    between atoms: _71  and  _74
REMARK   19  A    between atoms: _74  and  _75
REMARK   20  A    between atoms: _80  and  _81
REMARK   21  A    between atoms: _83  and  _85
REMARK   22  A    between atoms: _85  and  _86
REMARK   23  A    between atoms: _85  and  _88
REMARK   24  A    between atoms: _88  and  _89
REMARK   25  A    between atoms: _89  and  _90
REMARK   26  A    between atoms: _93  and  _95
REMARK   27  A    between atoms: _95  and  _96
REMARK   28  A    between atoms: _95  and  _98
REMARK   29  A    between atoms: _98  and  _99
REMARK   30  A    between atoms: _99  and  _100
REMARK   31  A    between atoms: _102  and  _104
REMARK   32  A    between atoms: _104  and  _105
REMARK   33  A    between atoms: _104  and  _107
REMARK   34  A    between atoms: _107  and  _108
REMARK   35  A    between atoms: _111  and  _113
REMARK   36  A    between atoms: _113  and  _114
REMARK   37  A    between atoms: _113  and  _116
REMARK   38  A    between atoms: _116  and  _117
REMARK   39  A    between atoms: _117  and  _119
REMARK   40  A    between atoms: _119  and  ZN_433
REMARK   41  A    between atoms: _121  and  _122
REMARK   42  A    between atoms: _127  and  _129
REMARK   43  A    between atoms: _129  and  _130
REMARK   44  A    between atoms: _129  and  _132
REMARK   45  A    between atoms: _132  and  _133
REMARK   46  A    between atoms: _139  and  _141
REMARK   47  A    between atoms: _141  and  _142
REMARK   48  A    between atoms: _141  and  _144
REMARK   49  A    between atoms: _144  and  _145
REMARK   50  A    between atoms: _145  and  _146
REMARK   51  A    between atoms: _151  and  _153
REMARK   52  A    between atoms: _153  and  _154
REMARK   53  A    between atoms: _153  and  _156
REMARK   54  A    between atoms: _156  and  _157
REMARK   55  A    between atoms: _157  and  _158
REMARK   56  A    between atoms: _158  and  _159
REMARK   57  A    between atoms: _168  and  _170
REMARK   58  A    between atoms: _170  and  _171
REMARK   59  A    between atoms: _170  and  _173
REMARK   60  A    between atoms: _173  and  _174
REMARK   61  A    between atoms: _179  and  _180
REMARK   62  A    between atoms: _182  and  _184
REMARK   63  A    between atoms: _184  and  _185
REMARK   64  A    between atoms: _184  and  _187
REMARK   65  A    between atoms: _187  and  _188
REMARK   66  A    between atoms: _190  and  _192
REMARK   67  A    between atoms: _192  and  _193
REMARK   68  A    between atoms: _192  and  _195
REMARK   69  A    between atoms: _195  and  _196
REMARK   70  A    between atoms: _201  and  _202
REMARK   71  A    between atoms: _204  and  _206
REMARK   72  A    between atoms: _206  and  _207
REMARK   73  A    between atoms: _206  and  _209
REMARK   74  A    between atoms: _209  and  _210
REMARK   75  A    between atoms: _213  and  _215
REMARK   76  A    between atoms: _215  and  _216
REMARK   77  A    between atoms: _215  and  _218
REMARK   78  A    between atoms: _218  and  _219
REMARK   79  A    between atoms: _222  and  _224
REMARK   80  A    between atoms: _224  and  _225
REMARK   81  A    between atoms: _224  and  _227
REMARK   82  A    between atoms: _227  and  _228
REMARK   83  A    between atoms: _234  and  _236
REMARK   84  A    between atoms: _236  and  _237
REMARK   85  A    between atoms: _236  and  _239
REMARK   86  A    between atoms: _239  and  _240
REMARK   87  A    between atoms: _245  and  _246
REMARK   88  A    between atoms: _248  and  _250
REMARK   89  A    between atoms: _250  and  _251
REMARK   90  A    between atoms: _250  and  _253
REMARK   91  A    between atoms: _253  and  _254
REMARK   92  A    between atoms: _257  and  _259
REMARK   93  A    between atoms: _259  and  _260
REMARK   94  A    between atoms: _259  and  _262
REMARK   95  A    between atoms: _262  and  _263
REMARK   96  A    between atoms: _263  and  _264
REMARK   97  A    between atoms: _264  and  _265
REMARK   98  A    between atoms: _274  and  _276
REMARK   99  A    between atoms: _276  and  _277
REMARK  100  A    between atoms: _276  and  _279
REMARK  101  A    between atoms: _279  and  _280
REMARK  102  A    between atoms: _290  and  _292
REMARK  103  A    between atoms: _292  and  _293
REMARK  104  A    between atoms: _292  and  _295
REMARK  105  A    between atoms: _295  and  _296
REMARK  106  A    between atoms: _301  and  _303
REMARK  107  A    between atoms: _303  and  _304
REMARK  108  A    between atoms: _303  and  _306
REMARK  109  A    between atoms: _306  and  _307
REMARK  110  A    between atoms: _311  and  ZN_433
REMARK  111  A    between atoms: _312  and  _314
REMARK  112  A    between atoms: _314  and  _315
REMARK  113  A    between atoms: _314  and  _317
REMARK  114  A    between atoms: _317  and  _318
REMARK  115  A    between atoms: _321  and  _323
REMARK  116  A    between atoms: _323  and  _324
REMARK  117  A    between atoms: _326  and  _328
REMARK  118  A    between atoms: _328  and  _329
REMARK  119  A    between atoms: _328  and  _331
REMARK  120  A    between atoms: _331  and  _332
REMARK  121  A    between atoms: _335  and  _337
REMARK  122  A    between atoms: _337  and  _338
REMARK  123  A    between atoms: _340  and  _342
REMARK  124  A    between atoms: _342  and  _343
REMARK  125  A    between atoms: _342  and  _345
REMARK  126  A    between atoms: _345  and  _346
REMARK  127  A    between atoms: _349  and  _351
REMARK  128  A    between atoms: _351  and  _352
REMARK  129  A    between atoms: _355  and  _357
REMARK  130  A    between atoms: _357  and  _358
REMARK  131  A    between atoms: _357  and  _360
REMARK  132  A    between atoms: _360  and  _361
REMARK  133  A    between atoms: _366  and  _367
REMARK  134  A    between atoms: _369  and  _371
REMARK  135  A    between atoms: _371  and  _372
REMARK  136  A    between atoms: _371  and  _374
REMARK  137  A    between atoms: _374  and  _375
REMARK  138  A    between atoms: _378  and  _380
REMARK  139  A    between atoms: _380  and  _381
REMARK  140  A    between atoms: _380  and  _383
REMARK  141  A    between atoms: _383  and  _384
REMARK  142  A    between atoms: _387  and  _389
REMARK  143  A    between atoms: _389  and  _390
REMARK  144  A    between atoms: _389  and  _392
REMARK  145  A    between atoms: _392  and  _393
REMARK  146  A    between atoms: _393  and  _394
REMARK  147  A    between atoms: _397  and  _399
REMARK  148  A    between atoms: _399  and  _400
REMARK  149  A    between atoms: _399  and  _402
REMARK  150  A    between atoms: _402  and  _403
REMARK  151  A    between atoms: _403  and  _404
REMARK  152  A    between atoms: _404  and  _405
REMARK  153  A    between atoms: _414  and  _416
REMARK  154  A    between atoms: _416  and  _417
REMARK  155  A    between atoms: _419  and  _421
REMARK  156  A    between atoms: _421  and  _422
REMARK  157  A    between atoms: _421  and  _424
REMARK  158  A    between atoms: _424  and  _425
REMARK  159  A    between atoms: _428  and  _430
REMARK  160  A    between atoms: _430  and  _431
REMARK                            x       y       z     vdW  Elec       q    Type
REMARK                         _______ _______ _______ _____ _____    ______ ____
ROOT
ATOM      1  O   HOH     1      24.804  61.232   9.354  0.00  0.00    +0.000 OA
ENDROOT
TORSDOF 0
REMARK  Name = ../refined-set-2016/3ejq/3ejq_pocket.pdb
REMARK  160 active torsions:
REMARK  status: ('A' for Active; 'I' for Inactive)
REMARK    1  A    between atoms: _1  and  _3
REMARK    2  A    between atoms: _14  and  _17
REMARK    3  A    between atoms: _17  and  _18
REMARK    4  A    between atoms: _25  and  _26
REMARK    5  A    between atoms: _33  and  _34
REMARK    6  A    between atoms: _39  and  _41
REMARK    7  A    between atoms: _41  and  _42
REMARK    8  A    between atoms: _44  and  _46
REMARK    9  A    between atoms: _46  and  _47
REMARK   10  A    between atoms: _46  and  _49
REMARK   11  A    between atoms: _49  and  _50
REMARK   12  A    between atoms: _60  and  _62
REMARK   13  A    between atoms: _62  and  _63
REMARK   14  A    between atoms: _62  and  _65
REMARK   15  A    between atoms: _65  and  _66
REMARK   16  A    between atoms: _69  and  _71
REMARK   17  A    between atoms: _71  and  _72
REMARK   18  A    between atoms: _71  and  _74
REMARK   19  A    between atoms: _74  and  _75
REMARK   20  A    between atoms: _80  and  _81
REMARK   21  A    between atoms: _83  and  _85
REMARK   22  A    between atoms: _85  and  _86
REMARK   23  A    between atoms: _85  and  _88
REMARK   24  A    between atoms: _88  and  _89
REMARK   25  A    between atoms: _89  and  _90
REMARK   26  A    between atoms: _93  and  _95
REMARK   27  A    between atoms: _95  and  _96
REMARK   28  A    between atoms: _95  and  _98
REMARK   29  A    between atoms: _98  and  _99
REMARK   30  A    between atoms: _99  and  _100
REMARK   31  A    between atoms: _102  and  _104
REMARK   32  A    between atoms: _104  and  _105
REMARK   33  A    between atoms: _104  and  _107
REMARK   34  A    between atoms: _107  and  _108
REMARK   35  A    between atoms: _111  and  _113
REMARK   36  A    between atoms: _113  and  _114
REMARK   37  A    between atoms: _113  and  _116
REMARK   38  A    between atoms: _116  and  _117
REMARK   39  A    between atoms: _117  and  _119
REMARK   40  A    between atoms: _119  and  ZN_433
REMARK   41  A    between atoms: _121  and  _122
REMARK   42  A    between atoms: _127  and  _129
REMARK   43  A    between atoms: _129  and  _130
REMARK   44  A    between atoms: _129  and  _132
REMARK   45  A    between atoms: _132  and  _133
REMARK   46  A    between atoms: _139  and  _141
REMARK   47  A    between atoms: _141  and  _142
REMARK   48  A    between atoms: _141  and  _144
REMARK   49  A    between atoms: _144  and  _145
REMARK   50  A    between atoms: _145  and  _146
REMARK   51  A    between atoms: _151  and  _153
REMARK   52  A    between atoms: _153  and  _154
REMARK   53  A    between atoms: _153  and  _156
REMARK   54  A    between atoms: _156  and  _157
REMARK   55  A    between atoms: _157  and  _158
REMARK   56  A    between atoms: _158  and  _159
REMARK   57  A    between atoms: _168  and  _170
REMARK   58  A    between atoms: _170  and  _171
REMARK   59  A    between atoms: _170  and  _173
REMARK   60  A    between atoms: _173  and  _174
REMARK   61  A    between atoms: _179  and  _180
REMARK   62  A    between atoms: _182  and  _184
REMARK   63  A    between atoms: _184  and  _185
REMARK   64  A    between atoms: _184  and  _187
REMARK   65  A    between atoms: _187  and  _188
REMARK   66  A    between atoms: _190  and  _192
REMARK   67  A    between atoms: _192  and  _193
REMARK   68  A    between atoms: _192  and  _195
REMARK   69  A    between atoms: _195  and  _196
REMARK   70  A    between atoms: _201  and  _202
REMARK   71  A    between atoms: _204  and  _206
REMARK   72  A    between atoms: _206  and  _207
REMARK   73  A    between atoms: _206  and  _209
REMARK   74  A    between atoms: _209  and  _210
REMARK   75  A    between atoms: _213  and  _215
REMARK   76  A    between atoms: _215  and  _216
REMARK   77  A    between atoms: _215  and  _218
REMARK   78  A    between atoms: _218  and  _219
REMARK   79  A    between atoms: _222  and  _224
REMARK   80  A    between atoms: _224  and  _225
REMARK   81  A    between atoms: _224  and  _227
REMARK   82  A    between atoms: _227  and  _228
REMARK   83  A    between atoms: _234  and  _236
REMARK   84  A    between atoms: _236  and  _237
REMARK   85  A    between atoms: _236  and  _239
REMARK   86  A    between atoms: _239  and  _240
REMARK   87  A    between atoms: _245  and  _246
REMARK   88  A    between atoms: _248  and  _250
REMARK   89  A    between atoms: _250  and  _251
REMARK   90  A    between atoms: _250  and  _253
REMARK   91  A    between atoms: _253  and  _254
REMARK   92  A    between atoms: _257  and  _259
REMARK   93  A    between atoms: _259  and  _260
REMARK   94  A    between atoms: _259  and  _262
REMARK   95  A    between atoms: _262  and  _263
REMARK   96  A    between atoms: _263  and  _264
REMARK   97  A    between atoms: _264  and  _265
REMARK   98  A    between atoms: _274  and  _276
REMARK   99  A    between atoms: _276  and  _277
REMARK  100  A    between atoms: _276  and  _279
REMARK  101  A    between atoms: _279  and  _280
REMARK  102  A    between atoms: _290  and  _292
REMARK  103  A    between atoms: _292  and  _293
REMARK  104  A    between atoms: _292  and  _295
REMARK  105  A    between atoms: _295  and  _296
REMARK  106  A    between atoms: _301  and  _303
REMARK  107  A    between atoms: _303  and  _304
REMARK  108  A    between atoms: _303  and  _306
REMARK  109  A    between atoms: _306  and  _307
REMARK  110  A    between atoms: _311  and  ZN_433
REMARK  111  A    between atoms: _312  and  _314
REMARK  112  A    between atoms: _314  and  _315
REMARK  113  A    between atoms: _314  and  _317
REMARK  114  A    between atoms: _317  and  _318
REMARK  115  A    between atoms: _321  and  _323
REMARK  116  A    between atoms: _323  and  _324
REMARK  117  A    between atoms: _326  and  _328
REMARK  118  A    between atoms: _328  and  _329
REMARK  119  A    between atoms: _328  and  _331
REMARK  120  A    between atoms: _331  and  _332
REMARK  121  A    between atoms: _335  and  _337
REMARK  122  A    between atoms: _337  and  _338
REMARK  123  A    between atoms: _340  and  _342
REMARK  124  A    between atoms: _342  and  _343
REMARK  125  A    between atoms: _342  and  _345
REMARK  126  A    between atoms: _345  and  _346
REMARK  127  A    between atoms: _349  and  _351
REMARK  128  A    between atoms: _351  and  _352
REMARK  129  A    between atoms: _355  and  _357
REMARK  130  A    between atoms: _357  and  _358
REMARK  131  A    between atoms: _357  and  _360
REMARK  132  A    between atoms: _360  and  _361
REMARK  133  A    between atoms: _366  and  _367
REMARK  134  A    between atoms: _369  and  _371
REMARK  135  A    between atoms: _371  and  _372
REMARK  136  A    between atoms: _371  and  _374
REMARK  137  A    between atoms: _374  and  _375
REMARK  138  A    between atoms: _378  and  _380
REMARK  139  A    between atoms: _380  and  _381
REMARK  140  A    between atoms: _380  and  _383
REMARK  141  A    between atoms: _383  and  _384
REMARK  142  A    between atoms: _387  and  _389
REMARK  143  A    between atoms: _389  and  _390
REMARK  144  A    between atoms: _389  and  _392
REMARK  145  A    between atoms: _392  and  _393
REMARK  146  A    between atoms: _393  and  _394
REMARK  147  A    between atoms: _397  and  _399
REMARK  148  A    between atoms: _399  and  _400
REMARK  149  A    between atoms: _399  and  _402
REMARK  150  A    between atoms: _402  and  _403
REMARK  151  A    between atoms: _403  and  _404
REMARK  152  A    between atoms: _404  and  _405
REMARK  153  A    between atoms: _414  and  _416
REMARK  154  A    between atoms: _416  and  _417
REMARK  155  A    between atoms: _419  and  _421
REMARK  156  A    between atoms: _421  and  _422
REMARK  157  A    between atoms: _421  and  _424
REMARK  158  A    between atoms: _424  and  _425
REMARK  159  A    between atoms: _428  and  _430
REMARK  160  A    between atoms: _430  and  _431
REMARK                            x       y       z     vdW  Elec       q    Type
REMARK                         _______ _______ _______ _____ _____    ______ ____
ROOT
ATOM      1  O   HOH     1      24.114  63.321   7.736  0.00  0.00    +0.000 OA
ENDROOT
TORSDOF 0
REMARK  Name = ../refined-set-2016/3ejq/3ejq_pocket.pdb
REMARK  160 active torsions:
REMARK  status: ('A' for Active; 'I' for Inactive)
REMARK    1  A    between atoms: _1  and  _3
REMARK    2  A    between atoms: _14  and  _17
REMARK    3  A    between atoms: _17  and  _18
REMARK    4  A    between atoms: _25  and  _26
REMARK    5  A    between atoms: _33  and  _34
REMARK    6  A    between atoms: _39  and  _41
REMARK    7  A    between atoms: _41  and  _42
REMARK    8  A    between atoms: _44  and  _46
REMARK    9  A    between atoms: _46  and  _47
REMARK   10  A    between atoms: _46  and  _49
REMARK   11  A    between atoms: _49  and  _50
REMARK   12  A    between atoms: _60  and  _62
REMARK   13  A    between atoms: _62  and  _63
REMARK   14  A    between atoms: _62  and  _65
REMARK   15  A    between atoms: _65  and  _66
REMARK   16  A    between atoms: _69  and  _71
REMARK   17  A    between atoms: _71  and  _72
REMARK   18  A    between atoms: _71  and  _74
REMARK   19  A    between atoms: _74  and  _75
REMARK   20  A    between atoms: _80  and  _81
REMARK   21  A    between atoms: _83  and  _85
REMARK   22  A    between atoms: _85  and  _86
REMARK   23  A    between atoms: _85  and  _88
REMARK   24  A    between atoms: _88  and  _89
REMARK   25  A    between atoms: _89  and  _90
REMARK   26  A    between atoms: _93  and  _95
REMARK   27  A    between atoms: _95  and  _96
REMARK   28  A    between atoms: _95  and  _98
REMARK   29  A    between atoms: _98  and  _99
REMARK   30  A    between atoms: _99  and  _100
REMARK   31  A    between atoms: _102  and  _104
REMARK   32  A    between atoms: _104  and  _105
REMARK   33  A    between atoms: _104  and  _107
REMARK   34  A    between atoms: _107  and  _108
REMARK   35  A    between atoms: _111  and  _113
REMARK   36  A    between atoms: _113  and  _114
REMARK   37  A    between atoms: _113  and  _116
REMARK   38  A    between atoms: _116  and  _117
REMARK   39  A    between atoms: _117  and  _119
REMARK   40  A    between atoms: _119  and  ZN_433
REMARK   41  A    between atoms: _121  and  _122
REMARK   42  A    between atoms: _127  and  _129
REMARK   43  A    between atoms: _129  and  _130
REMARK   44  A    between atoms: _129  and  _132
REMARK   45  A    between atoms: _132  and  _133
REMARK   46  A    between atoms: _139  and  _141
REMARK   47  A    between atoms: _141  and  _142
REMARK   48  A    between atoms: _141  and  _144
REMARK   49  A    between atoms: _144  and  _145
REMARK   50  A    between atoms: _145  and  _146
REMARK   51  A    between atoms: _151  and  _153
REMARK   52  A    between atoms: _153  and  _154
REMARK   53  A    between atoms: _153  and  _156
REMARK   54  A    between atoms: _156  and  _157
REMARK   55  A    between atoms: _157  and  _158
REMARK   56  A    between atoms: _158  and  _159
REMARK   57  A    between atoms: _168  and  _170
REMARK   58  A    between atoms: _170  and  _171
REMARK   59  A    between atoms: _170  and  _173
REMARK   60  A    between atoms: _173  and  _174
REMARK   61  A    between atoms: _179  and  _180
REMARK   62  A    between atoms: _182  and  _184
REMARK   63  A    between atoms: _184  and  _185
REMARK   64  A    between atoms: _184  and  _187
REMARK   65  A    between atoms: _187  and  _188
REMARK   66  A    between atoms: _190  and  _192
REMARK   67  A    between atoms: _192  and  _193
REMARK   68  A    between atoms: _192  and  _195
REMARK   69  A    between atoms: _195  and  _196
REMARK   70  A    between atoms: _201  and  _202
REMARK   71  A    between atoms: _204  and  _206
REMARK   72  A    between atoms: _206  and  _207
REMARK   73  A    between atoms: _206  and  _209
REMARK   74  A    between atoms: _209  and  _210
REMARK   75  A    between atoms: _213  and  _215
REMARK   76  A    between atoms: _215  and  _216
REMARK   77  A    between atoms: _215  and  _218
REMARK   78  A    between atoms: _218  and  _219
REMARK   79  A    between atoms: _222  and  _224
REMARK   80  A    between atoms: _224  and  _225
REMARK   81  A    between atoms: _224  and  _227
REMARK   82  A    between atoms: _227  and  _228
REMARK   83  A    between atoms: _234  and  _236
REMARK   84  A    between atoms: _236  and  _237
REMARK   85  A    between atoms: _236  and  _239
REMARK   86  A    between atoms: _239  and  _240
REMARK   87  A    between atoms: _245  and  _246
REMARK   88  A    between atoms: _248  and  _250
REMARK   89  A    between atoms: _250  and  _251
REMARK   90  A    between atoms: _250  and  _253
REMARK   91  A    between atoms: _253  and  _254
REMARK   92  A    between atoms: _257  and  _259
REMARK   93  A    between atoms: _259  and  _260
REMARK   94  A    between atoms: _259  and  _262
REMARK   95  A    between atoms: _262  and  _263
REMARK   96  A    between atoms: _263  and  _264
REMARK   97  A    between atoms: _264  and  _265
REMARK   98  A    between atoms: _274  and  _276
REMARK   99  A    between atoms: _276  and  _277
REMARK  100  A    between atoms: _276  and  _279
REMARK  101  A    between atoms: _279  and  _280
REMARK  102  A    between atoms: _290  and  _292
REMARK  103  A    between atoms: _292  and  _293
REMARK  104  A    between atoms: _292  and  _295
REMARK  105  A    between atoms: _295  and  _296
REMARK  106  A    between atoms: _301  and  _303
REMARK  107  A    between atoms: _303  and  _304
REMARK  108  A    between atoms: _303  and  _306
REMARK  109  A    between atoms: _306  and  _307
REMARK  110  A    between atoms: _311  and  ZN_433
REMARK  111  A    between atoms: _312  and  _314
REMARK  112  A    between atoms: _314  and  _315
REMARK  113  A    between atoms: _314  and  _317
REMARK  114  A    between atoms: _317  and  _318
REMARK  115  A    between atoms: _321  and  _323
REMARK  116  A    between atoms: _323  and  _324
REMARK  117  A    between atoms: _326  and  _328
REMARK  118  A    between atoms: _328  and  _329
REMARK  119  A    between atoms: _328  and  _331
REMARK  120  A    between atoms: _331  and  _332
REMARK  121  A    between atoms: _335  and  _337
REMARK  122  A    between atoms: _337  and  _338
REMARK  123  A    between atoms: _340  and  _342
REMARK  124  A    between atoms: _342  and  _343
REMARK  125  A    between atoms: _342  and  _345
REMARK  126  A    between atoms: _345  and  _346
REMARK  127  A    between atoms: _349  and  _351
REMARK  128  A    between atoms: _351  and  _352
REMARK  129  A    between atoms: _355  and  _357
REMARK  130  A    between atoms: _357  and  _358
REMARK  131  A    between atoms: _357  and  _360
REMARK  132  A    between atoms: _360  and  _361
REMARK  133  A    between atoms: _366  and  _367
REMARK  134  A    between atoms: _369  and  _371
REMARK  135  A    between atoms: _371  and  _372
REMARK  136  A    between atoms: _371  and  _374
REMARK  137  A    between atoms: _374  and  _375
REMARK  138  A    between atoms: _378  and  _380
REMARK  139  A    between atoms: _380  and  _381
REMARK  140  A    between atoms: _380  and  _383
REMARK  141  A    between atoms: _383  and  _384
REMARK  142  A    between atoms: _387  and  _389
REMARK  143  A    between atoms: _389  and  _390
REMARK  144  A    between atoms: _389  and  _392
REMARK  145  A    between atoms: _392  and  _393
REMARK  146  A    between atoms: _393  and  _394
REMARK  147  A    between atoms: _397  and  _399
REMARK  148  A    between atoms: _399  and  _400
REMARK  149  A    between atoms: _399  and  _402
REMARK  150  A    between atoms: _402  and  _403
REMARK  151  A    between atoms: _403  and  _404
REMARK  152  A    between atoms: _404  and  _405
REMARK  153  A    between atoms: _414  and  _416
REMARK  154  A    between atoms: _416  and  _417
REMARK  155  A    between atoms: _419  and  _421
REMARK  156  A    between atoms: _421  and  _422
REMARK  157  A    between atoms: _421  and  _424
REMARK  158  A    between atoms: _424  and  _425
REMARK  159  A    between atoms: _428  and  _430
REMARK  160  A    between atoms: _430  and  _431
REMARK                            x       y       z     vdW  Elec       q    Type
REMARK                         _______ _______ _______ _____ _____    ______ ____
ROOT
ATOM      1  O   HOH     1      20.860  65.249   8.115  0.00  0.00    +0.000 OA
ENDROOT
TORSDOF 0
REMARK  Name = ../refined-set-2016/3ejq/3ejq_pocket.pdb
REMARK  160 active torsions:
REMARK  status: ('A' for Active; 'I' for Inactive)
REMARK    1  A    between atoms: _1  and  _3
REMARK    2  A    between atoms: _14  and  _17
REMARK    3  A    between atoms: _17  and  _18
REMARK    4  A    between atoms: _25  and  _26
REMARK    5  A    between atoms: _33  and  _34
REMARK    6  A    between atoms: _39  and  _41
REMARK    7  A    between atoms: _41  and  _42
REMARK    8  A    between atoms: _44  and  _46
REMARK    9  A    between atoms: _46  and  _47
REMARK   10  A    between atoms: _46  and  _49
REMARK   11  A    between atoms: _49  and  _50
REMARK   12  A    between atoms: _60  and  _62
REMARK   13  A    between atoms: _62  and  _63
REMARK   14  A    between atoms: _62  and  _65
REMARK   15  A    between atoms: _65  and  _66
REMARK   16  A    between atoms: _69  and  _71
REMARK   17  A    between atoms: _71  and  _72
REMARK   18  A    between atoms: _71  and  _74
REMARK   19  A    between atoms: _74  and  _75
REMARK   20  A    between atoms: _80  and  _81
REMARK   21  A    between atoms: _83  and  _85
REMARK   22  A    between atoms: _85  and  _86
REMARK   23  A    between atoms: _85  and  _88
REMARK   24  A    between atoms: _88  and  _89
REMARK   25  A    between atoms: _89  and  _90
REMARK   26  A    between atoms: _93  and  _95
REMARK   27  A    between atoms: _95  and  _96
REMARK   28  A    between atoms: _95  and  _98
REMARK   29  A    between atoms: _98  and  _99
REMARK   30  A    between atoms: _99  and  _100
REMARK   31  A    between atoms: _102  and  _104
REMARK   32  A    between atoms: _104  and  _105
REMARK   33  A    between atoms: _104  and  _107
REMARK   34  A    between atoms: _107  and  _108
REMARK   35  A    between atoms: _111  and  _113
REMARK   36  A    between atoms: _113  and  _114
REMARK   37  A    between atoms: _113  and  _116
REMARK   38  A    between atoms: _116  and  _117
REMARK   39  A    between atoms: _117  and  _119
REMARK   40  A    between atoms: _119  and  ZN_433
REMARK   41  A    between atoms: _121  and  _122
REMARK   42  A    between atoms: _127  and  _129
REMARK   43  A    between atoms: _129  and  _130
REMARK   44  A    between atoms: _129  and  _132
REMARK   45  A    between atoms: _132  and  _133
REMARK   46  A    between atoms: _139  and  _141
REMARK   47  A    between atoms: _141  and  _142
REMARK   48  A    between atoms: _141  and  _144
REMARK   49  A    between atoms: _144  and  _145
REMARK   50  A    between atoms: _145  and  _146
REMARK   51  A    between atoms: _151  and  _153
REMARK   52  A    between atoms: _153  and  _154
REMARK   53  A    between atoms: _153  and  _156
REMARK   54  A    between atoms: _156  and  _157
REMARK   55  A    between atoms: _157  and  _158
REMARK   56  A    between atoms: _158  and  _159
REMARK   57  A    between atoms: _168  and  _170
REMARK   58  A    between atoms: _170  and  _171
REMARK   59  A    between atoms: _170  and  _173
REMARK   60  A    between atoms: _173  and  _174
REMARK   61  A    between atoms: _179  and  _180
REMARK   62  A    between atoms: _182  and  _184
REMARK   63  A    between atoms: _184  and  _185
REMARK   64  A    between atoms: _184  and  _187
REMARK   65  A    between atoms: _187  and  _188
REMARK   66  A    between atoms: _190  and  _192
REMARK   67  A    between atoms: _192  and  _193
REMARK   68  A    between atoms: _192  and  _195
REMARK   69  A    between atoms: _195  and  _196
REMARK   70  A    between atoms: _201  and  _202
REMARK   71  A    between atoms: _204  and  _206
REMARK   72  A    between atoms: _206  and  _207
REMARK   73  A    between atoms: _206  and  _209
REMARK   74  A    between atoms: _209  and  _210
REMARK   75  A    between atoms: _213  and  _215
REMARK   76  A    between atoms: _215  and  _216
REMARK   77  A    between atoms: _215  and  _218
REMARK   78  A    between atoms: _218  and  _219
REMARK   79  A    between atoms: _222  and  _224
REMARK   80  A    between atoms: _224  and  _225
REMARK   81  A    between atoms: _224  and  _227
REMARK   82  A    between atoms: _227  and  _228
REMARK   83  A    between atoms: _234  and  _236
REMARK   84  A    between atoms: _236  and  _237
REMARK   85  A    between atoms: _236  and  _239
REMARK   86  A    between atoms: _239  and  _240
REMARK   87  A    between atoms: _245  and  _246
REMARK   88  A    between atoms: _248  and  _250
REMARK   89  A    between atoms: _250  and  _251
REMARK   90  A    between atoms: _250  and  _253
REMARK   91  A    between atoms: _253  and  _254
REMARK   92  A    between atoms: _257  and  _259
REMARK   93  A    between atoms: _259  and  _260
REMARK   94  A    between atoms: _259  and  _262
REMARK   95  A    between atoms: _262  and  _263
REMARK   96  A    between atoms: _263  and  _264
REMARK   97  A    between atoms: _264  and  _265
REMARK   98  A    between atoms: _274  and  _276
REMARK   99  A    between atoms: _276  and  _277
REMARK  100  A    between atoms: _276  and  _279
REMARK  101  A    between atoms: _279  and  _280
REMARK  102  A    between atoms: _290  and  _292
REMARK  103  A    between atoms: _292  and  _293
REMARK  104  A    between atoms: _292  and  _295
REMARK  105  A    between atoms: _295  and  _296
REMARK  106  A    between atoms: _301  and  _303
REMARK  107  A    between atoms: _303  and  _304
REMARK  108  A    between atoms: _303  and  _306
REMARK  109  A    between atoms: _306  and  _307
REMARK  110  A    between atoms: _311  and  ZN_433
REMARK  111  A    between atoms: _312  and  _314
REMARK  112  A    between atoms: _314  and  _315
REMARK  113  A    between atoms: _314  and  _317
REMARK  114  A    between atoms: _317  and  _318
REMARK  115  A    between atoms: _321  and  _323
REMARK  116  A    between atoms: _323  and  _324
REMARK  117  A    between atoms: _326  and  _328
REMARK  118  A    between atoms: _328  and  _329
REMARK  119  A    between atoms: _328  and  _331
REMARK  120  A    between atoms: _331  and  _332
REMARK  121  A    between atoms: _335  and  _337
REMARK  122  A    between atoms: _337  and  _338
REMARK  123  A    between atoms: _340  and  _342
REMARK  124  A    between atoms: _342  and  _343
REMARK  125  A    between atoms: _342  and  _345
REMARK  126  A    between atoms: _345  and  _346
REMARK  127  A    between atoms: _349  and  _351
REMARK  128  A    between atoms: _351  and  _352
REMARK  129  A    between atoms: _355  and  _357
REMARK  130  A    between atoms: _357  and  _358
REMARK  131  A    between atoms: _357  and  _360
REMARK  132  A    between atoms: _360  and  _361
REMARK  133  A    between atoms: _366  and  _367
REMARK  134  A    between atoms: _369  and  _371
REMARK  135  A    between atoms: _371  and  _372
REMARK  136  A    between atoms: _371  and  _374
REMARK  137  A    between atoms: _374  and  _375
REMARK  138  A    between atoms: _378  and  _380
REMARK  139  A    between atoms: _380  and  _381
REMARK  140  A    between atoms: _380  and  _383
REMARK  141  A    between atoms: _383  and  _384
REMARK  142  A    between atoms: _387  and  _389
REMARK  143  A    between atoms: _389  and  _390
REMARK  144  A    between atoms: _389  and  _392
REMARK  145  A    between atoms: _392  and  _393
REMARK  146  A    between atoms: _393  and  _394
REMARK  147  A    between atoms: _397  and  _399
REMARK  148  A    between atoms: _399  and  _400
REMARK  149  A    between atoms: _399  and  _402
REMARK  150  A    between atoms: _402  and  _403
REMARK  151  A    between atoms: _403  and  _404
REMARK  152  A    between atoms: _404  and  _405
REMARK  153  A    between atoms: _414  and  _416
REMARK  154  A    between atoms: _416  and  _417
REMARK  155  A    between atoms: _419  and  _421
REMARK  156  A    between atoms: _421  and  _422
REMARK  157  A    between atoms: _421  and  _424
REMARK  158  A    between atoms: _424  and  _425
REMARK  159  A    between atoms: _428  and  _430
REMARK  160  A    between atoms: _430  and  _431
REMARK                            x       y       z     vdW  Elec       q    Type
REMARK                         _______ _______ _______ _____ _____    ______ ____
ROOT
ATOM      1  O   HOH     1      20.659  67.940   8.584  0.00  0.00    +0.000 OA
ENDROOT
TORSDOF 0
REMARK  Name = ../refined-set-2016/3ejq/3ejq_pocket.pdb
REMARK  160 active torsions:
REMARK  status: ('A' for Active; 'I' for Inactive)
REMARK    1  A    between atoms: _1  and  _3
REMARK    2  A    between atoms: _14  and  _17
REMARK    3  A    between atoms: _17  and  _18
REMARK    4  A    between atoms: _25  and  _26
REMARK    5  A    between atoms: _33  and  _34
REMARK    6  A    between atoms: _39  and  _41
REMARK    7  A    between atoms: _41  and  _42
REMARK    8  A    between atoms: _44  and  _46
REMARK    9  A    between atoms: _46  and  _47
REMARK   10  A    between atoms: _46  and  _49
REMARK   11  A    between atoms: _49  and  _50
REMARK   12  A    between atoms: _60  and  _62
REMARK   13  A    between atoms: _62  and  _63
REMARK   14  A    between atoms: _62  and  _65
REMARK   15  A    between atoms: _65  and  _66
REMARK   16  A    between atoms: _69  and  _71
REMARK   17  A    between atoms: _71  and  _72
REMARK   18  A    between atoms: _71  and  _74
REMARK   19  A    between atoms: _74  and  _75
REMARK   20  A    between atoms: _80  and  _81
REMARK   21  A    between atoms: _83  and  _85
REMARK   22  A    between atoms: _85  and  _86
REMARK   23  A    between atoms: _85  and  _88
REMARK   24  A    between atoms: _88  and  _89
REMARK   25  A    between atoms: _89  and  _90
REMARK   26  A    between atoms: _93  and  _95
REMARK   27  A    between atoms: _95  and  _96
REMARK   28  A    between atoms: _95  and  _98
REMARK   29  A    between atoms: _98  and  _99
REMARK   30  A    between atoms: _99  and  _100
REMARK   31  A    between atoms: _102  and  _104
REMARK   32  A    between atoms: _104  and  _105
REMARK   33  A    between atoms: _104  and  _107
REMARK   34  A    between atoms: _107  and  _108
REMARK   35  A    between atoms: _111  and  _113
REMARK   36  A    between atoms: _113  and  _114
REMARK   37  A    between atoms: _113  and  _116
REMARK   38  A    between atoms: _116  and  _117
REMARK   39  A    between atoms: _117  and  _119
REMARK   40  A    between atoms: _119  and  ZN_433
REMARK   41  A    between atoms: _121  and  _122
REMARK   42  A    between atoms: _127  and  _129
REMARK   43  A    between atoms: _129  and  _130
REMARK   44  A    between atoms: _129  and  _132
REMARK   45  A    between atoms: _132  and  _133
REMARK   46  A    between atoms: _139  and  _141
REMARK   47  A    between atoms: _141  and  _142
REMARK   48  A    between atoms: _141  and  _144
REMARK   49  A    between atoms: _144  and  _145
REMARK   50  A    between atoms: _145  and  _146
REMARK   51  A    between atoms: _151  and  _153
REMARK   52  A    between atoms: _153  and  _154
REMARK   53  A    between atoms: _153  and  _156
REMARK   54  A    between atoms: _156  and  _157
REMARK   55  A    between atoms: _157  and  _158
REMARK   56  A    between atoms: _158  and  _159
REMARK   57  A    between atoms: _168  and  _170
REMARK   58  A    between atoms: _170  and  _171
REMARK   59  A    between atoms: _170  and  _173
REMARK   60  A    between atoms: _173  and  _174
REMARK   61  A    between atoms: _179  and  _180
REMARK   62  A    between atoms: _182  and  _184
REMARK   63  A    between atoms: _184  and  _185
REMARK   64  A    between atoms: _184  and  _187
REMARK   65  A    between atoms: _187  and  _188
REMARK   66  A    between atoms: _190  and  _192
REMARK   67  A    between atoms: _192  and  _193
REMARK   68  A    between atoms: _192  and  _195
REMARK   69  A    between atoms: _195  and  _196
REMARK   70  A    between atoms: _201  and  _202
REMARK   71  A    between atoms: _204  and  _206
REMARK   72  A    between atoms: _206  and  _207
REMARK   73  A    between atoms: _206  and  _209
REMARK   74  A    between atoms: _209  and  _210
REMARK   75  A    between atoms: _213  and  _215
REMARK   76  A    between atoms: _215  and  _216
REMARK   77  A    between atoms: _215  and  _218
REMARK   78  A    between atoms: _218  and  _219
REMARK   79  A    between atoms: _222  and  _224
REMARK   80  A    between atoms: _224  and  _225
REMARK   81  A    between atoms: _224  and  _227
REMARK   82  A    between atoms: _227  and  _228
REMARK   83  A    between atoms: _234  and  _236
REMARK   84  A    between atoms: _236  and  _237
REMARK   85  A    between atoms: _236  and  _239
REMARK   86  A    between atoms: _239  and  _240
REMARK   87  A    between atoms: _245  and  _246
REMARK   88  A    between atoms: _248  and  _250
REMARK   89  A    between atoms: _250  and  _251
REMARK   90  A    between atoms: _250  and  _253
REMARK   91  A    between atoms: _253  and  _254
REMARK   92  A    between atoms: _257  and  _259
REMARK   93  A    between atoms: _259  and  _260
REMARK   94  A    between atoms: _259  and  _262
REMARK   95  A    between atoms: _262  and  _263
REMARK   96  A    between atoms: _263  and  _264
REMARK   97  A    between atoms: _264  and  _265
REMARK   98  A    between atoms: _274  and  _276
REMARK   99  A    between atoms: _276  and  _277
REMARK  100  A    between atoms: _276  and  _279
REMARK  101  A    between atoms: _279  and  _280
REMARK  102  A    between atoms: _290  and  _292
REMARK  103  A    between atoms: _292  and  _293
REMARK  104  A    between atoms: _292  and  _295
REMARK  105  A    between atoms: _295  and  _296
REMARK  106  A    between atoms: _301  and  _303
REMARK  107  A    between atoms: _303  and  _304
REMARK  108  A    between atoms: _303  and  _306
REMARK  109  A    between atoms: _306  and  _307
REMARK  110  A    between atoms: _311  and  ZN_433
REMARK  111  A    between atoms: _312  and  _314
REMARK  112  A    between atoms: _314  and  _315
REMARK  113  A    between atoms: _314  and  _317
REMARK  114  A    between atoms: _317  and  _318
REMARK  115  A    between atoms: _321  and  _323
REMARK  116  A    between atoms: _323  and  _324
REMARK  117  A    between atoms: _326  and  _328
REMARK  118  A    between atoms: _328  and  _329
REMARK  119  A    between atoms: _328  and  _331
REMARK  120  A    between atoms: _331  and  _332
REMARK  121  A    between atoms: _335  and  _337
REMARK  122  A    between atoms: _337  and  _338
REMARK  123  A    between atoms: _340  and  _342
REMARK  124  A    between atoms: _342  and  _343
REMARK  125  A    between atoms: _342  and  _345
REMARK  126  A    between atoms: _345  and  _346
REMARK  127  A    between atoms: _349  and  _351
REMARK  128  A    between atoms: _351  and  _352
REMARK  129  A    between atoms: _355  and  _357
REMARK  130  A    between atoms: _357  and  _358
REMARK  131  A    between atoms: _357  and  _360
REMARK  132  A    between atoms: _360  and  _361
REMARK  133  A    between atoms: _366  and  _367
REMARK  134  A    between atoms: _369  and  _371
REMARK  135  A    between atoms: _371  and  _372
REMARK  136  A    between atoms: _371  and  _374
REMARK  137  A    between atoms: _374  and  _375
REMARK  138  A    between atoms: _378  and  _380
REMARK  139  A    between atoms: _380  and  _381
REMARK  140  A    between atoms: _380  and  _383
REMARK  141  A    between atoms: _383  and  _384
REMARK  142  A    between atoms: _387  and  _389
REMARK  143  A    between atoms: _389  and  _390
REMARK  144  A    between atoms: _389  and  _392
REMARK  145  A    between atoms: _392  and  _393
REMARK  146  A    between atoms: _393  and  _394
REMARK  147  A    between atoms: _397  and  _399
REMARK  148  A    between atoms: _399  and  _400
REMARK  149  A    between atoms: _399  and  _402
REMARK  150  A    between atoms: _402  and  _403
REMARK  151  A    between atoms: _403  and  _404
REMARK  152  A    between atoms: _404  and  _405
REMARK  153  A    between atoms: _414  and  _416
REMARK  154  A    between atoms: _416  and  _417
REMARK  155  A    between atoms: _419  and  _421
REMARK  156  A    between atoms: _421  and  _422
REMARK  157  A    between atoms: _421  and  _424
REMARK  158  A    between atoms: _424  and  _425
REMARK  159  A    between atoms: _428  and  _430
REMARK  160  A    between atoms: _430  and  _431
REMARK                            x       y       z     vdW  Elec       q    Type
REMARK                         _______ _______ _______ _____ _____    ______ ____
ROOT
ATOM      1  O   HOH     1      19.302  69.192  10.685  0.00  0.00    +0.000 OA
ENDROOT
TORSDOF 0
REMARK  Name = ../refined-set-2016/3ejq/3ejq_pocket.pdb
REMARK  160 active torsions:
REMARK  status: ('A' for Active; 'I' for Inactive)
REMARK    1  A    between atoms: _1  and  _3
REMARK    2  A    between atoms: _14  and  _17
REMARK    3  A    between atoms: _17  and  _18
REMARK    4  A    between atoms: _25  and  _26
REMARK    5  A    between atoms: _33  and  _34
REMARK    6  A    between atoms: _39  and  _41
REMARK    7  A    between atoms: _41  and  _42
REMARK    8  A    between atoms: _44  and  _46
REMARK    9  A    between atoms: _46  and  _47
REMARK   10  A    between atoms: _46  and  _49
REMARK   11  A    between atoms: _49  and  _50
REMARK   12  A    between atoms: _60  and  _62
REMARK   13  A    between atoms: _62  and  _63
REMARK   14  A    between atoms: _62  and  _65
REMARK   15  A    between atoms: _65  and  _66
REMARK   16  A    between atoms: _69  and  _71
REMARK   17  A    between atoms: _71  and  _72
REMARK   18  A    between atoms: _71  and  _74
REMARK   19  A    between atoms: _74  and  _75
REMARK   20  A    between atoms: _80  and  _81
REMARK   21  A    between atoms: _83  and  _85
REMARK   22  A    between atoms: _85  and  _86
REMARK   23  A    between atoms: _85  and  _88
REMARK   24  A    between atoms: _88  and  _89
REMARK   25  A    between atoms: _89  and  _90
REMARK   26  A    between atoms: _93  and  _95
REMARK   27  A    between atoms: _95  and  _96
REMARK   28  A    between atoms: _95  and  _98
REMARK   29  A    between atoms: _98  and  _99
REMARK   30  A    between atoms: _99  and  _100
REMARK   31  A    between atoms: _102  and  _104
REMARK   32  A    between atoms: _104  and  _105
REMARK   33  A    between atoms: _104  and  _107
REMARK   34  A    between atoms: _107  and  _108
REMARK   35  A    between atoms: _111  and  _113
REMARK   36  A    between atoms: _113  and  _114
REMARK   37  A    between atoms: _113  and  _116
REMARK   38  A    between atoms: _116  and  _117
REMARK   39  A    between atoms: _117  and  _119
REMARK   40  A    between atoms: _119  and  ZN_433
REMARK   41  A    between atoms: _121  and  _122
REMARK   42  A    between atoms: _127  and  _129
REMARK   43  A    between atoms: _129  and  _130
REMARK   44  A    between atoms: _129  and  _132
REMARK   45  A    between atoms: _132  and  _133
REMARK   46  A    between atoms: _139  and  _141
REMARK   47  A    between atoms: _141  and  _142
REMARK   48  A    between atoms: _141  and  _144
REMARK   49  A    between atoms: _144  and  _145
REMARK   50  A    between atoms: _145  and  _146
REMARK   51  A    between atoms: _151  and  _153
REMARK   52  A    between atoms: _153  and  _154
REMARK   53  A    between atoms: _153  and  _156
REMARK   54  A    between atoms: _156  and  _157
REMARK   55  A    between atoms: _157  and  _158
REMARK   56  A    between atoms: _158  and  _159
REMARK   57  A    between atoms: _168  and  _170
REMARK   58  A    between atoms: _170  and  _171
REMARK   59  A    between atoms: _170  and  _173
REMARK   60  A    between atoms: _173  and  _174
REMARK   61  A    between atoms: _179  and  _180
REMARK   62  A    between atoms: _182  and  _184
REMARK   63  A    between atoms: _184  and  _185
REMARK   64  A    between atoms: _184  and  _187
REMARK   65  A    between atoms: _187  and  _188
REMARK   66  A    between atoms: _190  and  _192
REMARK   67  A    between atoms: _192  and  _193
REMARK   68  A    between atoms: _192  and  _195
REMARK   69  A    between atoms: _195  and  _196
REMARK   70  A    between atoms: _201  and  _202
REMARK   71  A    between atoms: _204  and  _206
REMARK   72  A    between atoms: _206  and  _207
REMARK   73  A    between atoms: _206  and  _209
REMARK   74  A    between atoms: _209  and  _210
REMARK   75  A    between atoms: _213  and  _215
REMARK   76  A    between atoms: _215  and  _216
REMARK   77  A    between atoms: _215  and  _218
REMARK   78  A    between atoms: _218  and  _219
REMARK   79  A    between atoms: _222  and  _224
REMARK   80  A    between atoms: _224  and  _225
REMARK   81  A    between atoms: _224  and  _227
REMARK   82  A    between atoms: _227  and  _228
REMARK   83  A    between atoms: _234  and  _236
REMARK   84  A    between atoms: _236  and  _237
REMARK   85  A    between atoms: _236  and  _239
REMARK   86  A    between atoms: _239  and  _240
REMARK   87  A    between atoms: _245  and  _246
REMARK   88  A    between atoms: _248  and  _250
REMARK   89  A    between atoms: _250  and  _251
REMARK   90  A    between atoms: _250  and  _253
REMARK   91  A    between atoms: _253  and  _254
REMARK   92  A    between atoms: _257  and  _259
REMARK   93  A    between atoms: _259  and  _260
REMARK   94  A    between atoms: _259  and  _262
REMARK   95  A    between atoms: _262  and  _263
REMARK   96  A    between atoms: _263  and  _264
REMARK   97  A    between atoms: _264  and  _265
REMARK   98  A    between atoms: _274  and  _276
REMARK   99  A    between atoms: _276  and  _277
REMARK  100  A    between atoms: _276  and  _279
REMARK  101  A    between atoms: _279  and  _280
REMARK  102  A    between atoms: _290  and  _292
REMARK  103  A    between atoms: _292  and  _293
REMARK  104  A    between atoms: _292  and  _295
REMARK  105  A    between atoms: _295  and  _296
REMARK  106  A    between atoms: _301  and  _303
REMARK  107  A    between atoms: _303  and  _304
REMARK  108  A    between atoms: _303  and  _306
REMARK  109  A    between atoms: _306  and  _307
REMARK  110  A    between atoms: _311  and  ZN_433
REMARK  111  A    between atoms: _312  and  _314
REMARK  112  A    between atoms: _314  and  _315
REMARK  113  A    between atoms: _314  and  _317
REMARK  114  A    between atoms: _317  and  _318
REMARK  115  A    between atoms: _321  and  _323
REMARK  116  A    between atoms: _323  and  _324
REMARK  117  A    between atoms: _326  and  _328
REMARK  118  A    between atoms: _328  and  _329
REMARK  119  A    between atoms: _328  and  _331
REMARK  120  A    between atoms: _331  and  _332
REMARK  121  A    between atoms: _335  and  _337
REMARK  122  A    between atoms: _337  and  _338
REMARK  123  A    between atoms: _340  and  _342
REMARK  124  A    between atoms: _342  and  _343
REMARK  125  A    between atoms: _342  and  _345
REMARK  126  A    between atoms: _345  and  _346
REMARK  127  A    between atoms: _349  and  _351
REMARK  128  A    between atoms: _351  and  _352
REMARK  129  A    between atoms: _355  and  _357
REMARK  130  A    between atoms: _357  and  _358
REMARK  131  A    between atoms: _357  and  _360
REMARK  132  A    between atoms: _360  and  _361
REMARK  133  A    between atoms: _366  and  _367
REMARK  134  A    between atoms: _369  and  _371
REMARK  135  A    between atoms: _371  and  _372
REMARK  136  A    between atoms: _371  and  _374
REMARK  137  A    between atoms: _374  and  _375
REMARK  138  A    between atoms: _378  and  _380
REMARK  139  A    between atoms: _380  and  _381
REMARK  140  A    between atoms: _380  and  _383
REMARK  141  A    between atoms: _383  and  _384
REMARK  142  A    between atoms: _387  and  _389
REMARK  143  A    between atoms: _389  and  _390
REMARK  144  A    between atoms: _389  and  _392
REMARK  145  A    between atoms: _392  and  _393
REMARK  146  A    between atoms: _393  and  _394
REMARK  147  A    between atoms: _397  and  _399
REMARK  148  A    between atoms: _399  and  _400
REMARK  149  A    between atoms: _399  and  _402
REMARK  150  A    between atoms: _402  and  _403
REMARK  151  A    between atoms: _403  and  _404
REMARK  152  A    between atoms: _404  and  _405
REMARK  153  A    between atoms: _414  and  _416
REMARK  154  A    between atoms: _416  and  _417
REMARK  155  A    between atoms: _419  and  _421
REMARK  156  A    between atoms: _421  and  _422
REMARK  157  A    between atoms: _421  and  _424
REMARK  158  A    between atoms: _424  and  _425
REMARK  159  A    between atoms: _428  and  _430
REMARK  160  A    between atoms: _430  and  _431
REMARK                            x       y       z     vdW  Elec       q    Type
REMARK                         _______ _______ _______ _____ _____    ______ ____
ROOT
ATOM      1  O   HOH     1      21.353  72.470  11.169  0.00  0.00    +0.000 OA
ENDROOT
TORSDOF 0
REMARK  Name = ../refined-set-2016/3ejq/3ejq_pocket.pdb
REMARK  160 active torsions:
REMARK  status: ('A' for Active; 'I' for Inactive)
REMARK    1  A    between atoms: _1  and  _3
REMARK    2  A    between atoms: _14  and  _17
REMARK    3  A    between atoms: _17  and  _18
REMARK    4  A    between atoms: _25  and  _26
REMARK    5  A    between atoms: _33  and  _34
REMARK    6  A    between atoms: _39  and  _41
REMARK    7  A    between atoms: _41  and  _42
REMARK    8  A    between atoms: _44  and  _46
REMARK    9  A    between atoms: _46  and  _47
REMARK   10  A    between atoms: _46  and  _49
REMARK   11  A    between atoms: _49  and  _50
REMARK   12  A    between atoms: _60  and  _62
REMARK   13  A    between atoms: _62  and  _63
REMARK   14  A    between atoms: _62  and  _65
REMARK   15  A    between atoms: _65  and  _66
REMARK   16  A    between atoms: _69  and  _71
REMARK   17  A    between atoms: _71  and  _72
REMARK   18  A    between atoms: _71  and  _74
REMARK   19  A    between atoms: _74  and  _75
REMARK   20  A    between atoms: _80  and  _81
REMARK   21  A    between atoms: _83  and  _85
REMARK   22  A    between atoms: _85  and  _86
REMARK   23  A    between atoms: _85  and  _88
REMARK   24  A    between atoms: _88  and  _89
REMARK   25  A    between atoms: _89  and  _90
REMARK   26  A    between atoms: _93  and  _95
REMARK   27  A    between atoms: _95  and  _96
REMARK   28  A    between atoms: _95  and  _98
REMARK   29  A    between atoms: _98  and  _99
REMARK   30  A    between atoms: _99  and  _100
REMARK   31  A    between atoms: _102  and  _104
REMARK   32  A    between atoms: _104  and  _105
REMARK   33  A    between atoms: _104  and  _107
REMARK   34  A    between atoms: _107  and  _108
REMARK   35  A    between atoms: _111  and  _113
REMARK   36  A    between atoms: _113  and  _114
REMARK   37  A    between atoms: _113  and  _116
REMARK   38  A    between atoms: _116  and  _117
REMARK   39  A    between atoms: _117  and  _119
REMARK   40  A    between atoms: _119  and  ZN_433
REMARK   41  A    between atoms: _121  and  _122
REMARK   42  A    between atoms: _127  and  _129
REMARK   43  A    between atoms: _129  and  _130
REMARK   44  A    between atoms: _129  and  _132
REMARK   45  A    between atoms: _132  and  _133
REMARK   46  A    between atoms: _139  and  _141
REMARK   47  A    between atoms: _141  and  _142
REMARK   48  A    between atoms: _141  and  _144
REMARK   49  A    between atoms: _144  and  _145
REMARK   50  A    between atoms: _145  and  _146
REMARK   51  A    between atoms: _151  and  _153
REMARK   52  A    between atoms: _153  and  _154
REMARK   53  A    between atoms: _153  and  _156
REMARK   54  A    between atoms: _156  and  _157
REMARK   55  A    between atoms: _157  and  _158
REMARK   56  A    between atoms: _158  and  _159
REMARK   57  A    between atoms: _168  and  _170
REMARK   58  A    between atoms: _170  and  _171
REMARK   59  A    between atoms: _170  and  _173
REMARK   60  A    between atoms: _173  and  _174
REMARK   61  A    between atoms: _179  and  _180
REMARK   62  A    between atoms: _182  and  _184
REMARK   63  A    between atoms: _184  and  _185
REMARK   64  A    between atoms: _184  and  _187
REMARK   65  A    between atoms: _187  and  _188
REMARK   66  A    between atoms: _190  and  _192
REMARK   67  A    between atoms: _192  and  _193
REMARK   68  A    between atoms: _192  and  _195
REMARK   69  A    between atoms: _195  and  _196
REMARK   70  A    between atoms: _201  and  _202
REMARK   71  A    between atoms: _204  and  _206
REMARK   72  A    between atoms: _206  and  _207
REMARK   73  A    between atoms: _206  and  _209
REMARK   74  A    between atoms: _209  and  _210
REMARK   75  A    between atoms: _213  and  _215
REMARK   76  A    between atoms: _215  and  _216
REMARK   77  A    between atoms: _215  and  _218
REMARK   78  A    between atoms: _218  and  _219
REMARK   79  A    between atoms: _222  and  _224
REMARK   80  A    between atoms: _224  and  _225
REMARK   81  A    between atoms: _224  and  _227
REMARK   82  A    between atoms: _227  and  _228
REMARK   83  A    between atoms: _234  and  _236
REMARK   84  A    between atoms: _236  and  _237
REMARK   85  A    between atoms: _236  and  _239
REMARK   86  A    between atoms: _239  and  _240
REMARK   87  A    between atoms: _245  and  _246
REMARK   88  A    between atoms: _248  and  _250
REMARK   89  A    between atoms: _250  and  _251
REMARK   90  A    between atoms: _250  and  _253
REMARK   91  A    between atoms: _253  and  _254
REMARK   92  A    between atoms: _257  and  _259
REMARK   93  A    between atoms: _259  and  _260
REMARK   94  A    between atoms: _259  and  _262
REMARK   95  A    between atoms: _262  and  _263
REMARK   96  A    between atoms: _263  and  _264
REMARK   97  A    between atoms: _264  and  _265
REMARK   98  A    between atoms: _274  and  _276
REMARK   99  A    between atoms: _276  and  _277
REMARK  100  A    between atoms: _276  and  _279
REMARK  101  A    between atoms: _279  and  _280
REMARK  102  A    between atoms: _290  and  _292
REMARK  103  A    between atoms: _292  and  _293
REMARK  104  A    between atoms: _292  and  _295
REMARK  105  A    between atoms: _295  and  _296
REMARK  106  A    between atoms: _301  and  _303
REMARK  107  A    between atoms: _303  and  _304
REMARK  108  A    between atoms: _303  and  _306
REMARK  109  A    between atoms: _306  and  _307
REMARK  110  A    between atoms: _311  and  ZN_433
REMARK  111  A    between atoms: _312  and  _314
REMARK  112  A    between atoms: _314  and  _315
REMARK  113  A    between atoms: _314  and  _317
REMARK  114  A    between atoms: _317  and  _318
REMARK  115  A    between atoms: _321  and  _323
REMARK  116  A    between atoms: _323  and  _324
REMARK  117  A    between atoms: _326  and  _328
REMARK  118  A    between atoms: _328  and  _329
REMARK  119  A    between atoms: _328  and  _331
REMARK  120  A    between atoms: _331  and  _332
REMARK  121  A    between atoms: _335  and  _337
REMARK  122  A    between atoms: _337  and  _338
REMARK  123  A    between atoms: _340  and  _342
REMARK  124  A    between atoms: _342  and  _343
REMARK  125  A    between atoms: _342  and  _345
REMARK  126  A    between atoms: _345  and  _346
REMARK  127  A    between atoms: _349  and  _351
REMARK  128  A    between atoms: _351  and  _352
REMARK  129  A    between atoms: _355  and  _357
REMARK  130  A    between atoms: _357  and  _358
REMARK  131  A    between atoms: _357  and  _360
REMARK  132  A    between atoms: _360  and  _361
REMARK  133  A    between atoms: _366  and  _367
REMARK  134  A    between atoms: _369  and  _371
REMARK  135  A    between atoms: _371  and  _372
REMARK  136  A    between atoms: _371  and  _374
REMARK  137  A    between atoms: _374  and  _375
REMARK  138  A    between atoms: _378  and  _380
REMARK  139  A    between atoms: _380  and  _381
REMARK  140  A    between atoms: _380  and  _383
REMARK  141  A    between atoms: _383  and  _384
REMARK  142  A    between atoms: _387  and  _389
REMARK  143  A    between atoms: _389  and  _390
REMARK  144  A    between atoms: _389  and  _392
REMARK  145  A    between atoms: _392  and  _393
REMARK  146  A    between atoms: _393  and  _394
REMARK  147  A    between atoms: _397  and  _399
REMARK  148  A    between atoms: _399  and  _400
REMARK  149  A    between atoms: _399  and  _402
REMARK  150  A    between atoms: _402  and  _403
REMARK  151  A    between atoms: _403  and  _404
REMARK  152  A    between atoms: _404  and  _405
REMARK  153  A    between atoms: _414  and  _416
REMARK  154  A    between atoms: _416  and  _417
REMARK  155  A    between atoms: _419  and  _421
REMARK  156  A    between atoms: _421  and  _422
REMARK  157  A    between atoms: _421  and  _424
REMARK  158  A    between atoms: _424  and  _425
REMARK  159  A    between atoms: _428  and  _430
REMARK  160  A    between atoms: _430  and  _431
REMARK                            x       y       z     vdW  Elec       q    Type
REMARK                         _______ _______ _______ _____ _____    ______ ____
ROOT
ATOM      1  O   HOH     1      23.911  72.081  10.812  0.00  0.00    +0.000 OA
ENDROOT
TORSDOF 0
REMARK  Name = ../refined-set-2016/3ejq/3ejq_pocket.pdb
REMARK  160 active torsions:
REMARK  status: ('A' for Active; 'I' for Inactive)
REMARK    1  A    between atoms: _1  and  _3
REMARK    2  A    between atoms: _14  and  _17
REMARK    3  A    between atoms: _17  and  _18
REMARK    4  A    between atoms: _25  and  _26
REMARK    5  A    between atoms: _33  and  _34
REMARK    6  A    between atoms: _39  and  _41
REMARK    7  A    between atoms: _41  and  _42
REMARK    8  A    between atoms: _44  and  _46
REMARK    9  A    between atoms: _46  and  _47
REMARK   10  A    between atoms: _46  and  _49
REMARK   11  A    between atoms: _49  and  _50
REMARK   12  A    between atoms: _60  and  _62
REMARK   13  A    between atoms: _62  and  _63
REMARK   14  A    between atoms: _62  and  _65
REMARK   15  A    between atoms: _65  and  _66
REMARK   16  A    between atoms: _69  and  _71
REMARK   17  A    between atoms: _71  and  _72
REMARK   18  A    between atoms: _71  and  _74
REMARK   19  A    between atoms: _74  and  _75
REMARK   20  A    between atoms: _80  and  _81
REMARK   21  A    between atoms: _83  and  _85
REMARK   22  A    between atoms: _85  and  _86
REMARK   23  A    between atoms: _85  and  _88
REMARK   24  A    between atoms: _88  and  _89
REMARK   25  A    between atoms: _89  and  _90
REMARK   26  A    between atoms: _93  and  _95
REMARK   27  A    between atoms: _95  and  _96
REMARK   28  A    between atoms: _95  and  _98
REMARK   29  A    between atoms: _98  and  _99
REMARK   30  A    between atoms: _99  and  _100
REMARK   31  A    between atoms: _102  and  _104
REMARK   32  A    between atoms: _104  and  _105
REMARK   33  A    between atoms: _104  and  _107
REMARK   34  A    between atoms: _107  and  _108
REMARK   35  A    between atoms: _111  and  _113
REMARK   36  A    between atoms: _113  and  _114
REMARK   37  A    between atoms: _113  and  _116
REMARK   38  A    between atoms: _116  and  _117
REMARK   39  A    between atoms: _117  and  _119
REMARK   40  A    between atoms: _119  and  ZN_433
REMARK   41  A    between atoms: _121  and  _122
REMARK   42  A    between atoms: _127  and  _129
REMARK   43  A    between atoms: _129  and  _130
REMARK   44  A    between atoms: _129  and  _132
REMARK   45  A    between atoms: _132  and  _133
REMARK   46  A    between atoms: _139  and  _141
REMARK   47  A    between atoms: _141  and  _142
REMARK   48  A    between atoms: _141  and  _144
REMARK   49  A    between atoms: _144  and  _145
REMARK   50  A    between atoms: _145  and  _146
REMARK   51  A    between atoms: _151  and  _153
REMARK   52  A    between atoms: _153  and  _154
REMARK   53  A    between atoms: _153  and  _156
REMARK   54  A    between atoms: _156  and  _157
REMARK   55  A    between atoms: _157  and  _158
REMARK   56  A    between atoms: _158  and  _159
REMARK   57  A    between atoms: _168  and  _170
REMARK   58  A    between atoms: _170  and  _171
REMARK   59  A    between atoms: _170  and  _173
REMARK   60  A    between atoms: _173  and  _174
REMARK   61  A    between atoms: _179  and  _180
REMARK   62  A    between atoms: _182  and  _184
REMARK   63  A    between atoms: _184  and  _185
REMARK   64  A    between atoms: _184  and  _187
REMARK   65  A    between atoms: _187  and  _188
REMARK   66  A    between atoms: _190  and  _192
REMARK   67  A    between atoms: _192  and  _193
REMARK   68  A    between atoms: _192  and  _195
REMARK   69  A    between atoms: _195  and  _196
REMARK   70  A    between atoms: _201  and  _202
REMARK   71  A    between atoms: _204  and  _206
REMARK   72  A    between atoms: _206  and  _207
REMARK   73  A    between atoms: _206  and  _209
REMARK   74  A    between atoms: _209  and  _210
REMARK   75  A    between atoms: _213  and  _215
REMARK   76  A    between atoms: _215  and  _216
REMARK   77  A    between atoms: _215  and  _218
REMARK   78  A    between atoms: _218  and  _219
REMARK   79  A    between atoms: _222  and  _224
REMARK   80  A    between atoms: _224  and  _225
REMARK   81  A    between atoms: _224  and  _227
REMARK   82  A    between atoms: _227  and  _228
REMARK   83  A    between atoms: _234  and  _236
REMARK   84  A    between atoms: _236  and  _237
REMARK   85  A    between atoms: _236  and  _239
REMARK   86  A    between atoms: _239  and  _240
REMARK   87  A    between atoms: _245  and  _246
REMARK   88  A    between atoms: _248  and  _250
REMARK   89  A    between atoms: _250  and  _251
REMARK   90  A    between atoms: _250  and  _253
REMARK   91  A    between atoms: _253  and  _254
REMARK   92  A    between atoms: _257  and  _259
REMARK   93  A    between atoms: _259  and  _260
REMARK   94  A    between atoms: _259  and  _262
REMARK   95  A    between atoms: _262  and  _263
REMARK   96  A    between atoms: _263  and  _264
REMARK   97  A    between atoms: _264  and  _265
REMARK   98  A    between atoms: _274  and  _276
REMARK   99  A    between atoms: _276  and  _277
REMARK  100  A    between atoms: _276  and  _279
REMARK  101  A    between atoms: _279  and  _280
REMARK  102  A    between atoms: _290  and  _292
REMARK  103  A    between atoms: _292  and  _293
REMARK  104  A    between atoms: _292  and  _295
REMARK  105  A    between atoms: _295  and  _296
REMARK  106  A    between atoms: _301  and  _303
REMARK  107  A    between atoms: _303  and  _304
REMARK  108  A    between atoms: _303  and  _306
REMARK  109  A    between atoms: _306  and  _307
REMARK  110  A    between atoms: _311  and  ZN_433
REMARK  111  A    between atoms: _312  and  _314
REMARK  112  A    between atoms: _314  and  _315
REMARK  113  A    between atoms: _314  and  _317
REMARK  114  A    between atoms: _317  and  _318
REMARK  115  A    between atoms: _321  and  _323
REMARK  116  A    between atoms: _323  and  _324
REMARK  117  A    between atoms: _326  and  _328
REMARK  118  A    between atoms: _328  and  _329
REMARK  119  A    between atoms: _328  and  _331
REMARK  120  A    between atoms: _331  and  _332
REMARK  121  A    between atoms: _335  and  _337
REMARK  122  A    between atoms: _337  and  _338
REMARK  123  A    between atoms: _340  and  _342
REMARK  124  A    between atoms: _342  and  _343
REMARK  125  A    between atoms: _342  and  _345
REMARK  126  A    between atoms: _345  and  _346
REMARK  127  A    between atoms: _349  and  _351
REMARK  128  A    between atoms: _351  and  _352
REMARK  129  A    between atoms: _355  and  _357
REMARK  130  A    between atoms: _357  and  _358
REMARK  131  A    between atoms: _357  and  _360
REMARK  132  A    between atoms: _360  and  _361
REMARK  133  A    between atoms: _366  and  _367
REMARK  134  A    between atoms: _369  and  _371
REMARK  135  A    between atoms: _371  and  _372
REMARK  136  A    between atoms: _371  and  _374
REMARK  137  A    between atoms: _374  and  _375
REMARK  138  A    between atoms: _378  and  _380
REMARK  139  A    between atoms: _380  and  _381
REMARK  140  A    between atoms: _380  and  _383
REMARK  141  A    between atoms: _383  and  _384
REMARK  142  A    between atoms: _387  and  _389
REMARK  143  A    between atoms: _389  and  _390
REMARK  144  A    between atoms: _389  and  _392
REMARK  145  A    between atoms: _392  and  _393
REMARK  146  A    between atoms: _393  and  _394
REMARK  147  A    between atoms: _397  and  _399
REMARK  148  A    between atoms: _399  and  _400
REMARK  149  A    between atoms: _399  and  _402
REMARK  150  A    between atoms: _402  and  _403
REMARK  151  A    between atoms: _403  and  _404
REMARK  152  A    between atoms: _404  and  _405
REMARK  153  A    between atoms: _414  and  _416
REMARK  154  A    between atoms: _416  and  _417
REMARK  155  A    between atoms: _419  and  _421
REMARK  156  A    between atoms: _421  and  _422
REMARK  157  A    between atoms: _421  and  _424
REMARK  158  A    between atoms: _424  and  _425
REMARK  159  A    between atoms: _428  and  _430
REMARK  160  A    between atoms: _430  and  _431
REMARK                            x       y       z     vdW  Elec       q    Type
REMARK                         _______ _______ _______ _____ _____    ______ ____
ROOT
ATOM      1  O   HOH     1      25.065  71.690  13.015  0.00  0.00    +0.000 OA
ENDROOT
TORSDOF 0
REMARK  Name = ../refined-set-2016/3ejq/3ejq_pocket.pdb
REMARK  160 active torsions:
REMARK  status: ('A' for Active; 'I' for Inactive)
REMARK    1  A    between atoms: _1  and  _3
REMARK    2  A    between atoms: _14  and  _17
REMARK    3  A    between atoms: _17  and  _18
REMARK    4  A    between atoms: _25  and  _26
REMARK    5  A    between atoms: _33  and  _34
REMARK    6  A    between atoms: _39  and  _41
REMARK    7  A    between atoms: _41  and  _42
REMARK    8  A    between atoms: _44  and  _46
REMARK    9  A    between atoms: _46  and  _47
REMARK   10  A    between atoms: _46  and  _49
REMARK   11  A    between atoms: _49  and  _50
REMARK   12  A    between atoms: _60  and  _62
REMARK   13  A    between atoms: _62  and  _63
REMARK   14  A    between atoms: _62  and  _65
REMARK   15  A    between atoms: _65  and  _66
REMARK   16  A    between atoms: _69  and  _71
REMARK   17  A    between atoms: _71  and  _72
REMARK   18  A    between atoms: _71  and  _74
REMARK   19  A    between atoms: _74  and  _75
REMARK   20  A    between atoms: _80  and  _81
REMARK   21  A    between atoms: _83  and  _85
REMARK   22  A    between atoms: _85  and  _86
REMARK   23  A    between atoms: _85  and  _88
REMARK   24  A    between atoms: _88  and  _89
REMARK   25  A    between atoms: _89  and  _90
REMARK   26  A    between atoms: _93  and  _95
REMARK   27  A    between atoms: _95  and  _96
REMARK   28  A    between atoms: _95  and  _98
REMARK   29  A    between atoms: _98  and  _99
REMARK   30  A    between atoms: _99  and  _100
REMARK   31  A    between atoms: _102  and  _104
REMARK   32  A    between atoms: _104  and  _105
REMARK   33  A    between atoms: _104  and  _107
REMARK   34  A    between atoms: _107  and  _108
REMARK   35  A    between atoms: _111  and  _113
REMARK   36  A    between atoms: _113  and  _114
REMARK   37  A    between atoms: _113  and  _116
REMARK   38  A    between atoms: _116  and  _117
REMARK   39  A    between atoms: _117  and  _119
REMARK   40  A    between atoms: _119  and  ZN_433
REMARK   41  A    between atoms: _121  and  _122
REMARK   42  A    between atoms: _127  and  _129
REMARK   43  A    between atoms: _129  and  _130
REMARK   44  A    between atoms: _129  and  _132
REMARK   45  A    between atoms: _132  and  _133
REMARK   46  A    between atoms: _139  and  _141
REMARK   47  A    between atoms: _141  and  _142
REMARK   48  A    between atoms: _141  and  _144
REMARK   49  A    between atoms: _144  and  _145
REMARK   50  A    between atoms: _145  and  _146
REMARK   51  A    between atoms: _151  and  _153
REMARK   52  A    between atoms: _153  and  _154
REMARK   53  A    between atoms: _153  and  _156
REMARK   54  A    between atoms: _156  and  _157
REMARK   55  A    between atoms: _157  and  _158
REMARK   56  A    between atoms: _158  and  _159
REMARK   57  A    between atoms: _168  and  _170
REMARK   58  A    between atoms: _170  and  _171
REMARK   59  A    between atoms: _170  and  _173
REMARK   60  A    between atoms: _173  and  _174
REMARK   61  A    between atoms: _179  and  _180
REMARK   62  A    between atoms: _182  and  _184
REMARK   63  A    between atoms: _184  and  _185
REMARK   64  A    between atoms: _184  and  _187
REMARK   65  A    between atoms: _187  and  _188
REMARK   66  A    between atoms: _190  and  _192
REMARK   67  A    between atoms: _192  and  _193
REMARK   68  A    between atoms: _192  and  _195
REMARK   69  A    between atoms: _195  and  _196
REMARK   70  A    between atoms: _201  and  _202
REMARK   71  A    between atoms: _204  and  _206
REMARK   72  A    between atoms: _206  and  _207
REMARK   73  A    between atoms: _206  and  _209
REMARK   74  A    between atoms: _209  and  _210
REMARK   75  A    between atoms: _213  and  _215
REMARK   76  A    between atoms: _215  and  _216
REMARK   77  A    between atoms: _215  and  _218
REMARK   78  A    between atoms: _218  and  _219
REMARK   79  A    between atoms: _222  and  _224
REMARK   80  A    between atoms: _224  and  _225
REMARK   81  A    between atoms: _224  and  _227
REMARK   82  A    between atoms: _227  and  _228
REMARK   83  A    between atoms: _234  and  _236
REMARK   84  A    between atoms: _236  and  _237
REMARK   85  A    between atoms: _236  and  _239
REMARK   86  A    between atoms: _239  and  _240
REMARK   87  A    between atoms: _245  and  _246
REMARK   88  A    between atoms: _248  and  _250
REMARK   89  A    between atoms: _250  and  _251
REMARK   90  A    between atoms: _250  and  _253
REMARK   91  A    between atoms: _253  and  _254
REMARK   92  A    between atoms: _257  and  _259
REMARK   93  A    between atoms: _259  and  _260
REMARK   94  A    between atoms: _259  and  _262
REMARK   95  A    between atoms: _262  and  _263
REMARK   96  A    between atoms: _263  and  _264
REMARK   97  A    between atoms: _264  and  _265
REMARK   98  A    between atoms: _274  and  _276
REMARK   99  A    between atoms: _276  and  _277
REMARK  100  A    between atoms: _276  and  _279
REMARK  101  A    between atoms: _279  and  _280
REMARK  102  A    between atoms: _290  and  _292
REMARK  103  A    between atoms: _292  and  _293
REMARK  104  A    between atoms: _292  and  _295
REMARK  105  A    between atoms: _295  and  _296
REMARK  106  A    between atoms: _301  and  _303
REMARK  107  A    between atoms: _303  and  _304
REMARK  108  A    between atoms: _303  and  _306
REMARK  109  A    between atoms: _306  and  _307
REMARK  110  A    between atoms: _311  and  ZN_433
REMARK  111  A    between atoms: _312  and  _314
REMARK  112  A    between atoms: _314  and  _315
REMARK  113  A    between atoms: _314  and  _317
REMARK  114  A    between atoms: _317  and  _318
REMARK  115  A    between atoms: _321  and  _323
REMARK  116  A    between atoms: _323  and  _324
REMARK  117  A    between atoms: _326  and  _328
REMARK  118  A    between atoms: _328  and  _329
REMARK  119  A    between atoms: _328  and  _331
REMARK  120  A    between atoms: _331  and  _332
REMARK  121  A    between atoms: _335  and  _337
REMARK  122  A    between atoms: _337  and  _338
REMARK  123  A    between atoms: _340  and  _342
REMARK  124  A    between atoms: _342  and  _343
REMARK  125  A    between atoms: _342  and  _345
REMARK  126  A    between atoms: _345  and  _346
REMARK  127  A    between atoms: _349  and  _351
REMARK  128  A    between atoms: _351  and  _352
REMARK  129  A    between atoms: _355  and  _357
REMARK  130  A    between atoms: _357  and  _358
REMARK  131  A    between atoms: _357  and  _360
REMARK  132  A    between atoms: _360  and  _361
REMARK  133  A    between atoms: _366  and  _367
REMARK  134  A    between atoms: _369  and  _371
REMARK  135  A    between atoms: _371  and  _372
REMARK  136  A    between atoms: _371  and  _374
REMARK  137  A    between atoms: _374  and  _375
REMARK  138  A    between atoms: _378  and  _380
REMARK  139  A    between atoms: _380  and  _381
REMARK  140  A    between atoms: _380  and  _383
REMARK  141  A    between atoms: _383  and  _384
REMARK  142  A    between atoms: _387  and  _389
REMARK  143  A    between atoms: _389  and  _390
REMARK  144  A    between atoms: _389  and  _392
REMARK  145  A    between atoms: _392  and  _393
REMARK  146  A    between atoms: _393  and  _394
REMARK  147  A    between atoms: _397  and  _399
REMARK  148  A    between atoms: _399  and  _400
REMARK  149  A    between atoms: _399  and  _402
REMARK  150  A    between atoms: _402  and  _403
REMARK  151  A    between atoms: _403  and  _404
REMARK  152  A    between atoms: _404  and  _405
REMARK  153  A    between atoms: _414  and  _416
REMARK  154  A    between atoms: _416  and  _417
REMARK  155  A    between atoms: _419  and  _421
REMARK  156  A    between atoms: _421  and  _422
REMARK  157  A    between atoms: _421  and  _424
REMARK  158  A    between atoms: _424  and  _425
REMARK  159  A    between atoms: _428  and  _430
REMARK  160  A    between atoms: _430  and  _431
REMARK                            x       y       z     vdW  Elec       q    Type
REMARK                         _______ _______ _______ _____ _____    ______ ____
ROOT
ATOM      1  O   HOH     1      25.249  74.007   9.348  0.00  0.00    +0.000 OA
ENDROOT
TORSDOF 0
REMARK  Name = ../refined-set-2016/3ejq/3ejq_pocket.pdb
REMARK  160 active torsions:
REMARK  status: ('A' for Active; 'I' for Inactive)
REMARK    1  A    between atoms: _1  and  _3
REMARK    2  A    between atoms: _14  and  _17
REMARK    3  A    between atoms: _17  and  _18
REMARK    4  A    between atoms: _25  and  _26
REMARK    5  A    between atoms: _33  and  _34
REMARK    6  A    between atoms: _39  and  _41
REMARK    7  A    between atoms: _41  and  _42
REMARK    8  A    between atoms: _44  and  _46
REMARK    9  A    between atoms: _46  and  _47
REMARK   10  A    between atoms: _46  and  _49
REMARK   11  A    between atoms: _49  and  _50
REMARK   12  A    between atoms: _60  and  _62
REMARK   13  A    between atoms: _62  and  _63
REMARK   14  A    between atoms: _62  and  _65
REMARK   15  A    between atoms: _65  and  _66
REMARK   16  A    between atoms: _69  and  _71
REMARK   17  A    between atoms: _71  and  _72
REMARK   18  A    between atoms: _71  and  _74
REMARK   19  A    between atoms: _74  and  _75
REMARK   20  A    between atoms: _80  and  _81
REMARK   21  A    between atoms: _83  and  _85
REMARK   22  A    between atoms: _85  and  _86
REMARK   23  A    between atoms: _85  and  _88
REMARK   24  A    between atoms: _88  and  _89
REMARK   25  A    between atoms: _89  and  _90
REMARK   26  A    between atoms: _93  and  _95
REMARK   27  A    between atoms: _95  and  _96
REMARK   28  A    between atoms: _95  and  _98
REMARK   29  A    between atoms: _98  and  _99
REMARK   30  A    between atoms: _99  and  _100
REMARK   31  A    between atoms: _102  and  _104
REMARK   32  A    between atoms: _104  and  _105
REMARK   33  A    between atoms: _104  and  _107
REMARK   34  A    between atoms: _107  and  _108
REMARK   35  A    between atoms: _111  and  _113
REMARK   36  A    between atoms: _113  and  _114
REMARK   37  A    between atoms: _113  and  _116
REMARK   38  A    between atoms: _116  and  _117
REMARK   39  A    between atoms: _117  and  _119
REMARK   40  A    between atoms: _119  and  ZN_433
REMARK   41  A    between atoms: _121  and  _122
REMARK   42  A    between atoms: _127  and  _129
REMARK   43  A    between atoms: _129  and  _130
REMARK   44  A    between atoms: _129  and  _132
REMARK   45  A    between atoms: _132  and  _133
REMARK   46  A    between atoms: _139  and  _141
REMARK   47  A    between atoms: _141  and  _142
REMARK   48  A    between atoms: _141  and  _144
REMARK   49  A    between atoms: _144  and  _145
REMARK   50  A    between atoms: _145  and  _146
REMARK   51  A    between atoms: _151  and  _153
REMARK   52  A    between atoms: _153  and  _154
REMARK   53  A    between atoms: _153  and  _156
REMARK   54  A    between atoms: _156  and  _157
REMARK   55  A    between atoms: _157  and  _158
REMARK   56  A    between atoms: _158  and  _159
REMARK   57  A    between atoms: _168  and  _170
REMARK   58  A    between atoms: _170  and  _171
REMARK   59  A    between atoms: _170  and  _173
REMARK   60  A    between atoms: _173  and  _174
REMARK   61  A    between atoms: _179  and  _180
REMARK   62  A    between atoms: _182  and  _184
REMARK   63  A    between atoms: _184  and  _185
REMARK   64  A    between atoms: _184  and  _187
REMARK   65  A    between atoms: _187  and  _188
REMARK   66  A    between atoms: _190  and  _192
REMARK   67  A    between atoms: _192  and  _193
REMARK   68  A    between atoms: _192  and  _195
REMARK   69  A    between atoms: _195  and  _196
REMARK   70  A    between atoms: _201  and  _202
REMARK   71  A    between atoms: _204  and  _206
REMARK   72  A    between atoms: _206  and  _207
REMARK   73  A    between atoms: _206  and  _209
REMARK   74  A    between atoms: _209  and  _210
REMARK   75  A    between atoms: _213  and  _215
REMARK   76  A    between atoms: _215  and  _216
REMARK   77  A    between atoms: _215  and  _218
REMARK   78  A    between atoms: _218  and  _219
REMARK   79  A    between atoms: _222  and  _224
REMARK   80  A    between atoms: _224  and  _225
REMARK   81  A    between atoms: _224  and  _227
REMARK   82  A    between atoms: _227  and  _228
REMARK   83  A    between atoms: _234  and  _236
REMARK   84  A    between atoms: _236  and  _237
REMARK   85  A    between atoms: _236  and  _239
REMARK   86  A    between atoms: _239  and  _240
REMARK   87  A    between atoms: _245  and  _246
REMARK   88  A    between atoms: _248  and  _250
REMARK   89  A    between atoms: _250  and  _251
REMARK   90  A    between atoms: _250  and  _253
REMARK   91  A    between atoms: _253  and  _254
REMARK   92  A    between atoms: _257  and  _259
REMARK   93  A    between atoms: _259  and  _260
REMARK   94  A    between atoms: _259  and  _262
REMARK   95  A    between atoms: _262  and  _263
REMARK   96  A    between atoms: _263  and  _264
REMARK   97  A    between atoms: _264  and  _265
REMARK   98  A    between atoms: _274  and  _276
REMARK   99  A    between atoms: _276  and  _277
REMARK  100  A    between atoms: _276  and  _279
REMARK  101  A    between atoms: _279  and  _280
REMARK  102  A    between atoms: _290  and  _292
REMARK  103  A    between atoms: _292  and  _293
REMARK  104  A    between atoms: _292  and  _295
REMARK  105  A    between atoms: _295  and  _296
REMARK  106  A    between atoms: _301  and  _303
REMARK  107  A    between atoms: _303  and  _304
REMARK  108  A    between atoms: _303  and  _306
REMARK  109  A    between atoms: _306  and  _307
REMARK  110  A    between atoms: _311  and  ZN_433
REMARK  111  A    between atoms: _312  and  _314
REMARK  112  A    between atoms: _314  and  _315
REMARK  113  A    between atoms: _314  and  _317
REMARK  114  A    between atoms: _317  and  _318
REMARK  115  A    between atoms: _321  and  _323
REMARK  116  A    between atoms: _323  and  _324
REMARK  117  A    between atoms: _326  and  _328
REMARK  118  A    between atoms: _328  and  _329
REMARK  119  A    between atoms: _328  and  _331
REMARK  120  A    between atoms: _331  and  _332
REMARK  121  A    between atoms: _335  and  _337
REMARK  122  A    between atoms: _337  and  _338
REMARK  123  A    between atoms: _340  and  _342
REMARK  124  A    between atoms: _342  and  _343
REMARK  125  A    between atoms: _342  and  _345
REMARK  126  A    between atoms: _345  and  _346
REMARK  127  A    between atoms: _349  and  _351
REMARK  128  A    between atoms: _351  and  _352
REMARK  129  A    between atoms: _355  and  _357
REMARK  130  A    between atoms: _357  and  _358
REMARK  131  A    between atoms: _357  and  _360
REMARK  132  A    between atoms: _360  and  _361
REMARK  133  A    between atoms: _366  and  _367
REMARK  134  A    between atoms: _369  and  _371
REMARK  135  A    between atoms: _371  and  _372
REMARK  136  A    between atoms: _371  and  _374
REMARK  137  A    between atoms: _374  and  _375
REMARK  138  A    between atoms: _378  and  _380
REMARK  139  A    between atoms: _380  and  _381
REMARK  140  A    between atoms: _380  and  _383
REMARK  141  A    between atoms: _383  and  _384
REMARK  142  A    between atoms: _387  and  _389
REMARK  143  A    between atoms: _389  and  _390
REMARK  144  A    between atoms: _389  and  _392
REMARK  145  A    between atoms: _392  and  _393
REMARK  146  A    between atoms: _393  and  _394
REMARK  147  A    between atoms: _397  and  _399
REMARK  148  A    between atoms: _399  and  _400
REMARK  149  A    between atoms: _399  and  _402
REMARK  150  A    between atoms: _402  and  _403
REMARK  151  A    between atoms: _403  and  _404
REMARK  152  A    between atoms: _404  and  _405
REMARK  153  A    between atoms: _414  and  _416
REMARK  154  A    between atoms: _416  and  _417
REMARK  155  A    between atoms: _419  and  _421
REMARK  156  A    between atoms: _421  and  _422
REMARK  157  A    between atoms: _421  and  _424
REMARK  158  A    between atoms: _424  and  _425
REMARK  159  A    between atoms: _428  and  _430
REMARK  160  A    between atoms: _430  and  _431
REMARK                            x       y       z     vdW  Elec       q    Type
REMARK                         _______ _______ _______ _____ _____    ______ ____
ROOT
ATOM      1  O   HOH     1      26.079  72.663   5.870  0.00  0.00    +0.000 OA
ENDROOT
TORSDOF 0
REMARK  Name = ../refined-set-2016/3ejq/3ejq_pocket.pdb
REMARK  160 active torsions:
REMARK  status: ('A' for Active; 'I' for Inactive)
REMARK    1  A    between atoms: _1  and  _3
REMARK    2  A    between atoms: _14  and  _17
REMARK    3  A    between atoms: _17  and  _18
REMARK    4  A    between atoms: _25  and  _26
REMARK    5  A    between atoms: _33  and  _34
REMARK    6  A    between atoms: _39  and  _41
REMARK    7  A    between atoms: _41  and  _42
REMARK    8  A    between atoms: _44  and  _46
REMARK    9  A    between atoms: _46  and  _47
REMARK   10  A    between atoms: _46  and  _49
REMARK   11  A    between atoms: _49  and  _50
REMARK   12  A    between atoms: _60  and  _62
REMARK   13  A    between atoms: _62  and  _63
REMARK   14  A    between atoms: _62  and  _65
REMARK   15  A    between atoms: _65  and  _66
REMARK   16  A    between atoms: _69  and  _71
REMARK   17  A    between atoms: _71  and  _72
REMARK   18  A    between atoms: _71  and  _74
REMARK   19  A    between atoms: _74  and  _75
REMARK   20  A    between atoms: _80  and  _81
REMARK   21  A    between atoms: _83  and  _85
REMARK   22  A    between atoms: _85  and  _86
REMARK   23  A    between atoms: _85  and  _88
REMARK   24  A    between atoms: _88  and  _89
REMARK   25  A    between atoms: _89  and  _90
REMARK   26  A    between atoms: _93  and  _95
REMARK   27  A    between atoms: _95  and  _96
REMARK   28  A    between atoms: _95  and  _98
REMARK   29  A    between atoms: _98  and  _99
REMARK   30  A    between atoms: _99  and  _100
REMARK   31  A    between atoms: _102  and  _104
REMARK   32  A    between atoms: _104  and  _105
REMARK   33  A    between atoms: _104  and  _107
REMARK   34  A    between atoms: _107  and  _108
REMARK   35  A    between atoms: _111  and  _113
REMARK   36  A    between atoms: _113  and  _114
REMARK   37  A    between atoms: _113  and  _116
REMARK   38  A    between atoms: _116  and  _117
REMARK   39  A    between atoms: _117  and  _119
REMARK   40  A    between atoms: _119  and  ZN_433
REMARK   41  A    between atoms: _121  and  _122
REMARK   42  A    between atoms: _127  and  _129
REMARK   43  A    between atoms: _129  and  _130
REMARK   44  A    between atoms: _129  and  _132
REMARK   45  A    between atoms: _132  and  _133
REMARK   46  A    between atoms: _139  and  _141
REMARK   47  A    between atoms: _141  and  _142
REMARK   48  A    between atoms: _141  and  _144
REMARK   49  A    between atoms: _144  and  _145
REMARK   50  A    between atoms: _145  and  _146
REMARK   51  A    between atoms: _151  and  _153
REMARK   52  A    between atoms: _153  and  _154
REMARK   53  A    between atoms: _153  and  _156
REMARK   54  A    between atoms: _156  and  _157
REMARK   55  A    between atoms: _157  and  _158
REMARK   56  A    between atoms: _158  and  _159
REMARK   57  A    between atoms: _168  and  _170
REMARK   58  A    between atoms: _170  and  _171
REMARK   59  A    between atoms: _170  and  _173
REMARK   60  A    between atoms: _173  and  _174
REMARK   61  A    between atoms: _179  and  _180
REMARK   62  A    between atoms: _182  and  _184
REMARK   63  A    between atoms: _184  and  _185
REMARK   64  A    between atoms: _184  and  _187
REMARK   65  A    between atoms: _187  and  _188
REMARK   66  A    between atoms: _190  and  _192
REMARK   67  A    between atoms: _192  and  _193
REMARK   68  A    between atoms: _192  and  _195
REMARK   69  A    between atoms: _195  and  _196
REMARK   70  A    between atoms: _201  and  _202
REMARK   71  A    between atoms: _204  and  _206
REMARK   72  A    between atoms: _206  and  _207
REMARK   73  A    between atoms: _206  and  _209
REMARK   74  A    between atoms: _209  and  _210
REMARK   75  A    between atoms: _213  and  _215
REMARK   76  A    between atoms: _215  and  _216
REMARK   77  A    between atoms: _215  and  _218
REMARK   78  A    between atoms: _218  and  _219
REMARK   79  A    between atoms: _222  and  _224
REMARK   80  A    between atoms: _224  and  _225
REMARK   81  A    between atoms: _224  and  _227
REMARK   82  A    between atoms: _227  and  _228
REMARK   83  A    between atoms: _234  and  _236
REMARK   84  A    between atoms: _236  and  _237
REMARK   85  A    between atoms: _236  and  _239
REMARK   86  A    between atoms: _239  and  _240
REMARK   87  A    between atoms: _245  and  _246
REMARK   88  A    between atoms: _248  and  _250
REMARK   89  A    between atoms: _250  and  _251
REMARK   90  A    between atoms: _250  and  _253
REMARK   91  A    between atoms: _253  and  _254
REMARK   92  A    between atoms: _257  and  _259
REMARK   93  A    between atoms: _259  and  _260
REMARK   94  A    between atoms: _259  and  _262
REMARK   95  A    between atoms: _262  and  _263
REMARK   96  A    between atoms: _263  and  _264
REMARK   97  A    between atoms: _264  and  _265
REMARK   98  A    between atoms: _274  and  _276
REMARK   99  A    between atoms: _276  and  _277
REMARK  100  A    between atoms: _276  and  _279
REMARK  101  A    between atoms: _279  and  _280
REMARK  102  A    between atoms: _290  and  _292
REMARK  103  A    between atoms: _292  and  _293
REMARK  104  A    between atoms: _292  and  _295
REMARK  105  A    between atoms: _295  and  _296
REMARK  106  A    between atoms: _301  and  _303
REMARK  107  A    between atoms: _303  and  _304
REMARK  108  A    between atoms: _303  and  _306
REMARK  109  A    between atoms: _306  and  _307
REMARK  110  A    between atoms: _311  and  ZN_433
REMARK  111  A    between atoms: _312  and  _314
REMARK  112  A    between atoms: _314  and  _315
REMARK  113  A    between atoms: _314  and  _317
REMARK  114  A    between atoms: _317  and  _318
REMARK  115  A    between atoms: _321  and  _323
REMARK  116  A    between atoms: _323  and  _324
REMARK  117  A    between atoms: _326  and  _328
REMARK  118  A    between atoms: _328  and  _329
REMARK  119  A    between atoms: _328  and  _331
REMARK  120  A    between atoms: _331  and  _332
REMARK  121  A    between atoms: _335  and  _337
REMARK  122  A    between atoms: _337  and  _338
REMARK  123  A    between atoms: _340  and  _342
REMARK  124  A    between atoms: _342  and  _343
REMARK  125  A    between atoms: _342  and  _345
REMARK  126  A    between atoms: _345  and  _346
REMARK  127  A    between atoms: _349  and  _351
REMARK  128  A    between atoms: _351  and  _352
REMARK  129  A    between atoms: _355  and  _357
REMARK  130  A    between atoms: _357  and  _358
REMARK  131  A    between atoms: _357  and  _360
REMARK  132  A    between atoms: _360  and  _361
REMARK  133  A    between atoms: _366  and  _367
REMARK  134  A    between atoms: _369  and  _371
REMARK  135  A    between atoms: _371  and  _372
REMARK  136  A    between atoms: _371  and  _374
REMARK  137  A    between atoms: _374  and  _375
REMARK  138  A    between atoms: _378  and  _380
REMARK  139  A    between atoms: _380  and  _381
REMARK  140  A    between atoms: _380  and  _383
REMARK  141  A    between atoms: _383  and  _384
REMARK  142  A    between atoms: _387  and  _389
REMARK  143  A    between atoms: _389  and  _390
REMARK  144  A    between atoms: _389  and  _392
REMARK  145  A    between atoms: _392  and  _393
REMARK  146  A    between atoms: _393  and  _394
REMARK  147  A    between atoms: _397  and  _399
REMARK  148  A    between atoms: _399  and  _400
REMARK  149  A    between atoms: _399  and  _402
REMARK  150  A    between atoms: _402  and  _403
REMARK  151  A    between atoms: _403  and  _404
REMARK  152  A    between atoms: _404  and  _405
REMARK  153  A    between atoms: _414  and  _416
REMARK  154  A    between atoms: _416  and  _417
REMARK  155  A    between atoms: _419  and  _421
REMARK  156  A    between atoms: _421  and  _422
REMARK  157  A    between atoms: _421  and  _424
REMARK  158  A    between atoms: _424  and  _425
REMARK  159  A    between atoms: _428  and  _430
REMARK  160  A    between atoms: _430  and  _431
REMARK                            x       y       z     vdW  Elec       q    Type
REMARK                         _______ _______ _______ _____ _____    ______ ____
ROOT
ATOM      1  O   HOH     1      21.516  75.626  11.282  0.00  0.00    +0.000 OA
ENDROOT
TORSDOF 0
REMARK  Name = ../refined-set-2016/3ejq/3ejq_pocket.pdb
REMARK  160 active torsions:
REMARK  status: ('A' for Active; 'I' for Inactive)
REMARK    1  A    between atoms: _1  and  _3
REMARK    2  A    between atoms: _14  and  _17
REMARK    3  A    between atoms: _17  and  _18
REMARK    4  A    between atoms: _25  and  _26
REMARK    5  A    between atoms: _33  and  _34
REMARK    6  A    between atoms: _39  and  _41
REMARK    7  A    between atoms: _41  and  _42
REMARK    8  A    between atoms: _44  and  _46
REMARK    9  A    between atoms: _46  and  _47
REMARK   10  A    between atoms: _46  and  _49
REMARK   11  A    between atoms: _49  and  _50
REMARK   12  A    between atoms: _60  and  _62
REMARK   13  A    between atoms: _62  and  _63
REMARK   14  A    between atoms: _62  and  _65
REMARK   15  A    between atoms: _65  and  _66
REMARK   16  A    between atoms: _69  and  _71
REMARK   17  A    between atoms: _71  and  _72
REMARK   18  A    between atoms: _71  and  _74
REMARK   19  A    between atoms: _74  and  _75
REMARK   20  A    between atoms: _80  and  _81
REMARK   21  A    between atoms: _83  and  _85
REMARK   22  A    between atoms: _85  and  _86
REMARK   23  A    between atoms: _85  and  _88
REMARK   24  A    between atoms: _88  and  _89
REMARK   25  A    between atoms: _89  and  _90
REMARK   26  A    between atoms: _93  and  _95
REMARK   27  A    between atoms: _95  and  _96
REMARK   28  A    between atoms: _95  and  _98
REMARK   29  A    between atoms: _98  and  _99
REMARK   30  A    between atoms: _99  and  _100
REMARK   31  A    between atoms: _102  and  _104
REMARK   32  A    between atoms: _104  and  _105
REMARK   33  A    between atoms: _104  and  _107
REMARK   34  A    between atoms: _107  and  _108
REMARK   35  A    between atoms: _111  and  _113
REMARK   36  A    between atoms: _113  and  _114
REMARK   37  A    between atoms: _113  and  _116
REMARK   38  A    between atoms: _116  and  _117
REMARK   39  A    between atoms: _117  and  _119
REMARK   40  A    between atoms: _119  and  ZN_433
REMARK   41  A    between atoms: _121  and  _122
REMARK   42  A    between atoms: _127  and  _129
REMARK   43  A    between atoms: _129  and  _130
REMARK   44  A    between atoms: _129  and  _132
REMARK   45  A    between atoms: _132  and  _133
REMARK   46  A    between atoms: _139  and  _141
REMARK   47  A    between atoms: _141  and  _142
REMARK   48  A    between atoms: _141  and  _144
REMARK   49  A    between atoms: _144  and  _145
REMARK   50  A    between atoms: _145  and  _146
REMARK   51  A    between atoms: _151  and  _153
REMARK   52  A    between atoms: _153  and  _154
REMARK   53  A    between atoms: _153  and  _156
REMARK   54  A    between atoms: _156  and  _157
REMARK   55  A    between atoms: _157  and  _158
REMARK   56  A    between atoms: _158  and  _159
REMARK   57  A    between atoms: _168  and  _170
REMARK   58  A    between atoms: _170  and  _171
REMARK   59  A    between atoms: _170  and  _173
REMARK   60  A    between atoms: _173  and  _174
REMARK   61  A    between atoms: _179  and  _180
REMARK   62  A    between atoms: _182  and  _184
REMARK   63  A    between atoms: _184  and  _185
REMARK   64  A    between atoms: _184  and  _187
REMARK   65  A    between atoms: _187  and  _188
REMARK   66  A    between atoms: _190  and  _192
REMARK   67  A    between atoms: _192  and  _193
REMARK   68  A    between atoms: _192  and  _195
REMARK   69  A    between atoms: _195  and  _196
REMARK   70  A    between atoms: _201  and  _202
REMARK   71  A    between atoms: _204  and  _206
REMARK   72  A    between atoms: _206  and  _207
REMARK   73  A    between atoms: _206  and  _209
REMARK   74  A    between atoms: _209  and  _210
REMARK   75  A    between atoms: _213  and  _215
REMARK   76  A    between atoms: _215  and  _216
REMARK   77  A    between atoms: _215  and  _218
REMARK   78  A    between atoms: _218  and  _219
REMARK   79  A    between atoms: _222  and  _224
REMARK   80  A    between atoms: _224  and  _225
REMARK   81  A    between atoms: _224  and  _227
REMARK   82  A    between atoms: _227  and  _228
REMARK   83  A    between atoms: _234  and  _236
REMARK   84  A    between atoms: _236  and  _237
REMARK   85  A    between atoms: _236  and  _239
REMARK   86  A    between atoms: _239  and  _240
REMARK   87  A    between atoms: _245  and  _246
REMARK   88  A    between atoms: _248  and  _250
REMARK   89  A    between atoms: _250  and  _251
REMARK   90  A    between atoms: _250  and  _253
REMARK   91  A    between atoms: _253  and  _254
REMARK   92  A    between atoms: _257  and  _259
REMARK   93  A    between atoms: _259  and  _260
REMARK   94  A    between atoms: _259  and  _262
REMARK   95  A    between atoms: _262  and  _263
REMARK   96  A    between atoms: _263  and  _264
REMARK   97  A    between atoms: _264  and  _265
REMARK   98  A    between atoms: _274  and  _276
REMARK   99  A    between atoms: _276  and  _277
REMARK  100  A    between atoms: _276  and  _279
REMARK  101  A    between atoms: _279  and  _280
REMARK  102  A    between atoms: _290  and  _292
REMARK  103  A    between atoms: _292  and  _293
REMARK  104  A    between atoms: _292  and  _295
REMARK  105  A    between atoms: _295  and  _296
REMARK  106  A    between atoms: _301  and  _303
REMARK  107  A    between atoms: _303  and  _304
REMARK  108  A    between atoms: _303  and  _306
REMARK  109  A    between atoms: _306  and  _307
REMARK  110  A    between atoms: _311  and  ZN_433
REMARK  111  A    between atoms: _312  and  _314
REMARK  112  A    between atoms: _314  and  _315
REMARK  113  A    between atoms: _314  and  _317
REMARK  114  A    between atoms: _317  and  _318
REMARK  115  A    between atoms: _321  and  _323
REMARK  116  A    between atoms: _323  and  _324
REMARK  117  A    between atoms: _326  and  _328
REMARK  118  A    between atoms: _328  and  _329
REMARK  119  A    between atoms: _328  and  _331
REMARK  120  A    between atoms: _331  and  _332
REMARK  121  A    between atoms: _335  and  _337
REMARK  122  A    between atoms: _337  and  _338
REMARK  123  A    between atoms: _340  and  _342
REMARK  124  A    between atoms: _342  and  _343
REMARK  125  A    between atoms: _342  and  _345
REMARK  126  A    between atoms: _345  and  _346
REMARK  127  A    between atoms: _349  and  _351
REMARK  128  A    between atoms: _351  and  _352
REMARK  129  A    between atoms: _355  and  _357
REMARK  130  A    between atoms: _357  and  _358
REMARK  131  A    between atoms: _357  and  _360
REMARK  132  A    between atoms: _360  and  _361
REMARK  133  A    between atoms: _366  and  _367
REMARK  134  A    between atoms: _369  and  _371
REMARK  135  A    between atoms: _371  and  _372
REMARK  136  A    between atoms: _371  and  _374
REMARK  137  A    between atoms: _374  and  _375
REMARK  138  A    between atoms: _378  and  _380
REMARK  139  A    between atoms: _380  and  _381
REMARK  140  A    between atoms: _380  and  _383
REMARK  141  A    between atoms: _383  and  _384
REMARK  142  A    between atoms: _387  and  _389
REMARK  143  A    between atoms: _389  and  _390
REMARK  144  A    between atoms: _389  and  _392
REMARK  145  A    between atoms: _392  and  _393
REMARK  146  A    between atoms: _393  and  _394
REMARK  147  A    between atoms: _397  and  _399
REMARK  148  A    between atoms: _399  and  _400
REMARK  149  A    between atoms: _399  and  _402
REMARK  150  A    between atoms: _402  and  _403
REMARK  151  A    between atoms: _403  and  _404
REMARK  152  A    between atoms: _404  and  _405
REMARK  153  A    between atoms: _414  and  _416
REMARK  154  A    between atoms: _416  and  _417
REMARK  155  A    between atoms: _419  and  _421
REMARK  156  A    between atoms: _421  and  _422
REMARK  157  A    between atoms: _421  and  _424
REMARK  158  A    between atoms: _424  and  _425
REMARK  159  A    between atoms: _428  and  _430
REMARK  160  A    between atoms: _430  and  _431
REMARK                            x       y       z     vdW  Elec       q    Type
REMARK                         _______ _______ _______ _____ _____    ______ ____
ROOT
ATOM      1  O   HOH     1      29.728  71.873  12.625  0.00  0.00    +0.000 OA
ENDROOT
TORSDOF 0
REMARK  Name = ../refined-set-2016/3ejq/3ejq_pocket.pdb
REMARK  160 active torsions:
REMARK  status: ('A' for Active; 'I' for Inactive)
REMARK    1  A    between atoms: _1  and  _3
REMARK    2  A    between atoms: _14  and  _17
REMARK    3  A    between atoms: _17  and  _18
REMARK    4  A    between atoms: _25  and  _26
REMARK    5  A    between atoms: _33  and  _34
REMARK    6  A    between atoms: _39  and  _41
REMARK    7  A    between atoms: _41  and  _42
REMARK    8  A    between atoms: _44  and  _46
REMARK    9  A    between atoms: _46  and  _47
REMARK   10  A    between atoms: _46  and  _49
REMARK   11  A    between atoms: _49  and  _50
REMARK   12  A    between atoms: _60  and  _62
REMARK   13  A    between atoms: _62  and  _63
REMARK   14  A    between atoms: _62  and  _65
REMARK   15  A    between atoms: _65  and  _66
REMARK   16  A    between atoms: _69  and  _71
REMARK   17  A    between atoms: _71  and  _72
REMARK   18  A    between atoms: _71  and  _74
REMARK   19  A    between atoms: _74  and  _75
REMARK   20  A    between atoms: _80  and  _81
REMARK   21  A    between atoms: _83  and  _85
REMARK   22  A    between atoms: _85  and  _86
REMARK   23  A    between atoms: _85  and  _88
REMARK   24  A    between atoms: _88  and  _89
REMARK   25  A    between atoms: _89  and  _90
REMARK   26  A    between atoms: _93  and  _95
REMARK   27  A    between atoms: _95  and  _96
REMARK   28  A    between atoms: _95  and  _98
REMARK   29  A    between atoms: _98  and  _99
REMARK   30  A    between atoms: _99  and  _100
REMARK   31  A    between atoms: _102  and  _104
REMARK   32  A    between atoms: _104  and  _105
REMARK   33  A    between atoms: _104  and  _107
REMARK   34  A    between atoms: _107  and  _108
REMARK   35  A    between atoms: _111  and  _113
REMARK   36  A    between atoms: _113  and  _114
REMARK   37  A    between atoms: _113  and  _116
REMARK   38  A    between atoms: _116  and  _117
REMARK   39  A    between atoms: _117  and  _119
REMARK   40  A    between atoms: _119  and  ZN_433
REMARK   41  A    between atoms: _121  and  _122
REMARK   42  A    between atoms: _127  and  _129
REMARK   43  A    between atoms: _129  and  _130
REMARK   44  A    between atoms: _129  and  _132
REMARK   45  A    between atoms: _132  and  _133
REMARK   46  A    between atoms: _139  and  _141
REMARK   47  A    between atoms: _141  and  _142
REMARK   48  A    between atoms: _141  and  _144
REMARK   49  A    between atoms: _144  and  _145
REMARK   50  A    between atoms: _145  and  _146
REMARK   51  A    between atoms: _151  and  _153
REMARK   52  A    between atoms: _153  and  _154
REMARK   53  A    between atoms: _153  and  _156
REMARK   54  A    between atoms: _156  and  _157
REMARK   55  A    between atoms: _157  and  _158
REMARK   56  A    between atoms: _158  and  _159
REMARK   57  A    between atoms: _168  and  _170
REMARK   58  A    between atoms: _170  and  _171
REMARK   59  A    between atoms: _170  and  _173
REMARK   60  A    between atoms: _173  and  _174
REMARK   61  A    between atoms: _179  and  _180
REMARK   62  A    between atoms: _182  and  _184
REMARK   63  A    between atoms: _184  and  _185
REMARK   64  A    between atoms: _184  and  _187
REMARK   65  A    between atoms: _187  and  _188
REMARK   66  A    between atoms: _190  and  _192
REMARK   67  A    between atoms: _192  and  _193
REMARK   68  A    between atoms: _192  and  _195
REMARK   69  A    between atoms: _195  and  _196
REMARK   70  A    between atoms: _201  and  _202
REMARK   71  A    between atoms: _204  and  _206
REMARK   72  A    between atoms: _206  and  _207
REMARK   73  A    between atoms: _206  and  _209
REMARK   74  A    between atoms: _209  and  _210
REMARK   75  A    between atoms: _213  and  _215
REMARK   76  A    between atoms: _215  and  _216
REMARK   77  A    between atoms: _215  and  _218
REMARK   78  A    between atoms: _218  and  _219
REMARK   79  A    between atoms: _222  and  _224
REMARK   80  A    between atoms: _224  and  _225
REMARK   81  A    between atoms: _224  and  _227
REMARK   82  A    between atoms: _227  and  _228
REMARK   83  A    between atoms: _234  and  _236
REMARK   84  A    between atoms: _236  and  _237
REMARK   85  A    between atoms: _236  and  _239
REMARK   86  A    between atoms: _239  and  _240
REMARK   87  A    between atoms: _245  and  _246
REMARK   88  A    between atoms: _248  and  _250
REMARK   89  A    between atoms: _250  and  _251
REMARK   90  A    between atoms: _250  and  _253
REMARK   91  A    between atoms: _253  and  _254
REMARK   92  A    between atoms: _257  and  _259
REMARK   93  A    between atoms: _259  and  _260
REMARK   94  A    between atoms: _259  and  _262
REMARK   95  A    between atoms: _262  and  _263
REMARK   96  A    between atoms: _263  and  _264
REMARK   97  A    between atoms: _264  and  _265
REMARK   98  A    between atoms: _274  and  _276
REMARK   99  A    between atoms: _276  and  _277
REMARK  100  A    between atoms: _276  and  _279
REMARK  101  A    between atoms: _279  and  _280
REMARK  102  A    between atoms: _290  and  _292
REMARK  103  A    between atoms: _292  and  _293
REMARK  104  A    between atoms: _292  and  _295
REMARK  105  A    between atoms: _295  and  _296
REMARK  106  A    between atoms: _301  and  _303
REMARK  107  A    between atoms: _303  and  _304
REMARK  108  A    between atoms: _303  and  _306
REMARK  109  A    between atoms: _306  and  _307
REMARK  110  A    between atoms: _311  and  ZN_433
REMARK  111  A    between atoms: _312  and  _314
REMARK  112  A    between atoms: _314  and  _315
REMARK  113  A    between atoms: _314  and  _317
REMARK  114  A    between atoms: _317  and  _318
REMARK  115  A    between atoms: _321  and  _323
REMARK  116  A    between atoms: _323  and  _324
REMARK  117  A    between atoms: _326  and  _328
REMARK  118  A    between atoms: _328  and  _329
REMARK  119  A    between atoms: _328  and  _331
REMARK  120  A    between atoms: _331  and  _332
REMARK  121  A    between atoms: _335  and  _337
REMARK  122  A    between atoms: _337  and  _338
REMARK  123  A    between atoms: _340  and  _342
REMARK  124  A    between atoms: _342  and  _343
REMARK  125  A    between atoms: _342  and  _345
REMARK  126  A    between atoms: _345  and  _346
REMARK  127  A    between atoms: _349  and  _351
REMARK  128  A    between atoms: _351  and  _352
REMARK  129  A    between atoms: _355  and  _357
REMARK  130  A    between atoms: _357  and  _358
REMARK  131  A    between atoms: _357  and  _360
REMARK  132  A    between atoms: _360  and  _361
REMARK  133  A    between atoms: _366  and  _367
REMARK  134  A    between atoms: _369  and  _371
REMARK  135  A    between atoms: _371  and  _372
REMARK  136  A    between atoms: _371  and  _374
REMARK  137  A    between atoms: _374  and  _375
REMARK  138  A    between atoms: _378  and  _380
REMARK  139  A    between atoms: _380  and  _381
REMARK  140  A    between atoms: _380  and  _383
REMARK  141  A    between atoms: _383  and  _384
REMARK  142  A    between atoms: _387  and  _389
REMARK  143  A    between atoms: _389  and  _390
REMARK  144  A    between atoms: _389  and  _392
REMARK  145  A    between atoms: _392  and  _393
REMARK  146  A    between atoms: _393  and  _394
REMARK  147  A    between atoms: _397  and  _399
REMARK  148  A    between atoms: _399  and  _400
REMARK  149  A    between atoms: _399  and  _402
REMARK  150  A    between atoms: _402  and  _403
REMARK  151  A    between atoms: _403  and  _404
REMARK  152  A    between atoms: _404  and  _405
REMARK  153  A    between atoms: _414  and  _416
REMARK  154  A    between atoms: _416  and  _417
REMARK  155  A    between atoms: _419  and  _421
REMARK  156  A    between atoms: _421  and  _422
REMARK  157  A    between atoms: _421  and  _424
REMARK  158  A    between atoms: _424  and  _425
REMARK  159  A    between atoms: _428  and  _430
REMARK  160  A    between atoms: _430  and  _431
REMARK                            x       y       z     vdW  Elec       q    Type
REMARK                         _______ _______ _______ _____ _____    ______ ____
ROOT
ATOM      1  O   HOH     1      31.919  70.973  13.987  0.00  0.00    +0.000 OA
ENDROOT
TORSDOF 0
REMARK  Name = ../refined-set-2016/3ejq/3ejq_pocket.pdb
REMARK  160 active torsions:
REMARK  status: ('A' for Active; 'I' for Inactive)
REMARK    1  A    between atoms: _1  and  _3
REMARK    2  A    between atoms: _14  and  _17
REMARK    3  A    between atoms: _17  and  _18
REMARK    4  A    between atoms: _25  and  _26
REMARK    5  A    between atoms: _33  and  _34
REMARK    6  A    between atoms: _39  and  _41
REMARK    7  A    between atoms: _41  and  _42
REMARK    8  A    between atoms: _44  and  _46
REMARK    9  A    between atoms: _46  and  _47
REMARK   10  A    between atoms: _46  and  _49
REMARK   11  A    between atoms: _49  and  _50
REMARK   12  A    between atoms: _60  and  _62
REMARK   13  A    between atoms: _62  and  _63
REMARK   14  A    between atoms: _62  and  _65
REMARK   15  A    between atoms: _65  and  _66
REMARK   16  A    between atoms: _69  and  _71
REMARK   17  A    between atoms: _71  and  _72
REMARK   18  A    between atoms: _71  and  _74
REMARK   19  A    between atoms: _74  and  _75
REMARK   20  A    between atoms: _80  and  _81
REMARK   21  A    between atoms: _83  and  _85
REMARK   22  A    between atoms: _85  and  _86
REMARK   23  A    between atoms: _85  and  _88
REMARK   24  A    between atoms: _88  and  _89
REMARK   25  A    between atoms: _89  and  _90
REMARK   26  A    between atoms: _93  and  _95
REMARK   27  A    between atoms: _95  and  _96
REMARK   28  A    between atoms: _95  and  _98
REMARK   29  A    between atoms: _98  and  _99
REMARK   30  A    between atoms: _99  and  _100
REMARK   31  A    between atoms: _102  and  _104
REMARK   32  A    between atoms: _104  and  _105
REMARK   33  A    between atoms: _104  and  _107
REMARK   34  A    between atoms: _107  and  _108
REMARK   35  A    between atoms: _111  and  _113
REMARK   36  A    between atoms: _113  and  _114
REMARK   37  A    between atoms: _113  and  _116
REMARK   38  A    between atoms: _116  and  _117
REMARK   39  A    between atoms: _117  and  _119
REMARK   40  A    between atoms: _119  and  ZN_433
REMARK   41  A    between atoms: _121  and  _122
REMARK   42  A    between atoms: _127  and  _129
REMARK   43  A    between atoms: _129  and  _130
REMARK   44  A    between atoms: _129  and  _132
REMARK   45  A    between atoms: _132  and  _133
REMARK   46  A    between atoms: _139  and  _141
REMARK   47  A    between atoms: _141  and  _142
REMARK   48  A    between atoms: _141  and  _144
REMARK   49  A    between atoms: _144  and  _145
REMARK   50  A    between atoms: _145  and  _146
REMARK   51  A    between atoms: _151  and  _153
REMARK   52  A    between atoms: _153  and  _154
REMARK   53  A    between atoms: _153  and  _156
REMARK   54  A    between atoms: _156  and  _157
REMARK   55  A    between atoms: _157  and  _158
REMARK   56  A    between atoms: _158  and  _159
REMARK   57  A    between atoms: _168  and  _170
REMARK   58  A    between atoms: _170  and  _171
REMARK   59  A    between atoms: _170  and  _173
REMARK   60  A    between atoms: _173  and  _174
REMARK   61  A    between atoms: _179  and  _180
REMARK   62  A    between atoms: _182  and  _184
REMARK   63  A    between atoms: _184  and  _185
REMARK   64  A    between atoms: _184  and  _187
REMARK   65  A    between atoms: _187  and  _188
REMARK   66  A    between atoms: _190  and  _192
REMARK   67  A    between atoms: _192  and  _193
REMARK   68  A    between atoms: _192  and  _195
REMARK   69  A    between atoms: _195  and  _196
REMARK   70  A    between atoms: _201  and  _202
REMARK   71  A    between atoms: _204  and  _206
REMARK   72  A    between atoms: _206  and  _207
REMARK   73  A    between atoms: _206  and  _209
REMARK   74  A    between atoms: _209  and  _210
REMARK   75  A    between atoms: _213  and  _215
REMARK   76  A    between atoms: _215  and  _216
REMARK   77  A    between atoms: _215  and  _218
REMARK   78  A    between atoms: _218  and  _219
REMARK   79  A    between atoms: _222  and  _224
REMARK   80  A    between atoms: _224  and  _225
REMARK   81  A    between atoms: _224  and  _227
REMARK   82  A    between atoms: _227  and  _228
REMARK   83  A    between atoms: _234  and  _236
REMARK   84  A    between atoms: _236  and  _237
REMARK   85  A    between atoms: _236  and  _239
REMARK   86  A    between atoms: _239  and  _240
REMARK   87  A    between atoms: _245  and  _246
REMARK   88  A    between atoms: _248  and  _250
REMARK   89  A    between atoms: _250  and  _251
REMARK   90  A    between atoms: _250  and  _253
REMARK   91  A    between atoms: _253  and  _254
REMARK   92  A    between atoms: _257  and  _259
REMARK   93  A    between atoms: _259  and  _260
REMARK   94  A    between atoms: _259  and  _262
REMARK   95  A    between atoms: _262  and  _263
REMARK   96  A    between atoms: _263  and  _264
REMARK   97  A    between atoms: _264  and  _265
REMARK   98  A    between atoms: _274  and  _276
REMARK   99  A    between atoms: _276  and  _277
REMARK  100  A    between atoms: _276  and  _279
REMARK  101  A    between atoms: _279  and  _280
REMARK  102  A    between atoms: _290  and  _292
REMARK  103  A    between atoms: _292  and  _293
REMARK  104  A    between atoms: _292  and  _295
REMARK  105  A    between atoms: _295  and  _296
REMARK  106  A    between atoms: _301  and  _303
REMARK  107  A    between atoms: _303  and  _304
REMARK  108  A    between atoms: _303  and  _306
REMARK  109  A    between atoms: _306  and  _307
REMARK  110  A    between atoms: _311  and  ZN_433
REMARK  111  A    between atoms: _312  and  _314
REMARK  112  A    between atoms: _314  and  _315
REMARK  113  A    between atoms: _314  and  _317
REMARK  114  A    between atoms: _317  and  _318
REMARK  115  A    between atoms: _321  and  _323
REMARK  116  A    between atoms: _323  and  _324
REMARK  117  A    between atoms: _326  and  _328
REMARK  118  A    between atoms: _328  and  _329
REMARK  119  A    between atoms: _328  and  _331
REMARK  120  A    between atoms: _331  and  _332
REMARK  121  A    between atoms: _335  and  _337
REMARK  122  A    between atoms: _337  and  _338
REMARK  123  A    between atoms: _340  and  _342
REMARK  124  A    between atoms: _342  and  _343
REMARK  125  A    between atoms: _342  and  _345
REMARK  126  A    between atoms: _345  and  _346
REMARK  127  A    between atoms: _349  and  _351
REMARK  128  A    between atoms: _351  and  _352
REMARK  129  A    between atoms: _355  and  _357
REMARK  130  A    between atoms: _357  and  _358
REMARK  131  A    between atoms: _357  and  _360
REMARK  132  A    between atoms: _360  and  _361
REMARK  133  A    between atoms: _366  and  _367
REMARK  134  A    between atoms: _369  and  _371
REMARK  135  A    between atoms: _371  and  _372
REMARK  136  A    between atoms: _371  and  _374
REMARK  137  A    between atoms: _374  and  _375
REMARK  138  A    between atoms: _378  and  _380
REMARK  139  A    between atoms: _380  and  _381
REMARK  140  A    between atoms: _380  and  _383
REMARK  141  A    between atoms: _383  and  _384
REMARK  142  A    between atoms: _387  and  _389
REMARK  143  A    between atoms: _389  and  _390
REMARK  144  A    between atoms: _389  and  _392
REMARK  145  A    between atoms: _392  and  _393
REMARK  146  A    between atoms: _393  and  _394
REMARK  147  A    between atoms: _397  and  _399
REMARK  148  A    between atoms: _399  and  _400
REMARK  149  A    between atoms: _399  and  _402
REMARK  150  A    between atoms: _402  and  _403
REMARK  151  A    between atoms: _403  and  _404
REMARK  152  A    between atoms: _404  and  _405
REMARK  153  A    between atoms: _414  and  _416
REMARK  154  A    between atoms: _416  and  _417
REMARK  155  A    between atoms: _419  and  _421
REMARK  156  A    between atoms: _421  and  _422
REMARK  157  A    between atoms: _421  and  _424
REMARK  158  A    between atoms: _424  and  _425
REMARK  159  A    between atoms: _428  and  _430
REMARK  160  A    between atoms: _430  and  _431
REMARK                            x       y       z     vdW  Elec       q    Type
REMARK                         _______ _______ _______ _____ _____    ______ ____
ROOT
ATOM      1  O   HOH     1      34.648  70.283  13.537  0.00  0.00    +0.000 OA
ENDROOT
TORSDOF 0
REMARK  Name = ../refined-set-2016/3ejq/3ejq_pocket.pdb
REMARK  160 active torsions:
REMARK  status: ('A' for Active; 'I' for Inactive)
REMARK    1  A    between atoms: _1  and  _3
REMARK    2  A    between atoms: _14  and  _17
REMARK    3  A    between atoms: _17  and  _18
REMARK    4  A    between atoms: _25  and  _26
REMARK    5  A    between atoms: _33  and  _34
REMARK    6  A    between atoms: _39  and  _41
REMARK    7  A    between atoms: _41  and  _42
REMARK    8  A    between atoms: _44  and  _46
REMARK    9  A    between atoms: _46  and  _47
REMARK   10  A    between atoms: _46  and  _49
REMARK   11  A    between atoms: _49  and  _50
REMARK   12  A    between atoms: _60  and  _62
REMARK   13  A    between atoms: _62  and  _63
REMARK   14  A    between atoms: _62  and  _65
REMARK   15  A    between atoms: _65  and  _66
REMARK   16  A    between atoms: _69  and  _71
REMARK   17  A    between atoms: _71  and  _72
REMARK   18  A    between atoms: _71  and  _74
REMARK   19  A    between atoms: _74  and  _75
REMARK   20  A    between atoms: _80  and  _81
REMARK   21  A    between atoms: _83  and  _85
REMARK   22  A    between atoms: _85  and  _86
REMARK   23  A    between atoms: _85  and  _88
REMARK   24  A    between atoms: _88  and  _89
REMARK   25  A    between atoms: _89  and  _90
REMARK   26  A    between atoms: _93  and  _95
REMARK   27  A    between atoms: _95  and  _96
REMARK   28  A    between atoms: _95  and  _98
REMARK   29  A    between atoms: _98  and  _99
REMARK   30  A    between atoms: _99  and  _100
REMARK   31  A    between atoms: _102  and  _104
REMARK   32  A    between atoms: _104  and  _105
REMARK   33  A    between atoms: _104  and  _107
REMARK   34  A    between atoms: _107  and  _108
REMARK   35  A    between atoms: _111  and  _113
REMARK   36  A    between atoms: _113  and  _114
REMARK   37  A    between atoms: _113  and  _116
REMARK   38  A    between atoms: _116  and  _117
REMARK   39  A    between atoms: _117  and  _119
REMARK   40  A    between atoms: _119  and  ZN_433
REMARK   41  A    between atoms: _121  and  _122
REMARK   42  A    between atoms: _127  and  _129
REMARK   43  A    between atoms: _129  and  _130
REMARK   44  A    between atoms: _129  and  _132
REMARK   45  A    between atoms: _132  and  _133
REMARK   46  A    between atoms: _139  and  _141
REMARK   47  A    between atoms: _141  and  _142
REMARK   48  A    between atoms: _141  and  _144
REMARK   49  A    between atoms: _144  and  _145
REMARK   50  A    between atoms: _145  and  _146
REMARK   51  A    between atoms: _151  and  _153
REMARK   52  A    between atoms: _153  and  _154
REMARK   53  A    between atoms: _153  and  _156
REMARK   54  A    between atoms: _156  and  _157
REMARK   55  A    between atoms: _157  and  _158
REMARK   56  A    between atoms: _158  and  _159
REMARK   57  A    between atoms: _168  and  _170
REMARK   58  A    between atoms: _170  and  _171
REMARK   59  A    between atoms: _170  and  _173
REMARK   60  A    between atoms: _173  and  _174
REMARK   61  A    between atoms: _179  and  _180
REMARK   62  A    between atoms: _182  and  _184
REMARK   63  A    between atoms: _184  and  _185
REMARK   64  A    between atoms: _184  and  _187
REMARK   65  A    between atoms: _187  and  _188
REMARK   66  A    between atoms: _190  and  _192
REMARK   67  A    between atoms: _192  and  _193
REMARK   68  A    between atoms: _192  and  _195
REMARK   69  A    between atoms: _195  and  _196
REMARK   70  A    between atoms: _201  and  _202
REMARK   71  A    between atoms: _204  and  _206
REMARK   72  A    between atoms: _206  and  _207
REMARK   73  A    between atoms: _206  and  _209
REMARK   74  A    between atoms: _209  and  _210
REMARK   75  A    between atoms: _213  and  _215
REMARK   76  A    between atoms: _215  and  _216
REMARK   77  A    between atoms: _215  and  _218
REMARK   78  A    between atoms: _218  and  _219
REMARK   79  A    between atoms: _222  and  _224
REMARK   80  A    between atoms: _224  and  _225
REMARK   81  A    between atoms: _224  and  _227
REMARK   82  A    between atoms: _227  and  _228
REMARK   83  A    between atoms: _234  and  _236
REMARK   84  A    between atoms: _236  and  _237
REMARK   85  A    between atoms: _236  and  _239
REMARK   86  A    between atoms: _239  and  _240
REMARK   87  A    between atoms: _245  and  _246
REMARK   88  A    between atoms: _248  and  _250
REMARK   89  A    between atoms: _250  and  _251
REMARK   90  A    between atoms: _250  and  _253
REMARK   91  A    between atoms: _253  and  _254
REMARK   92  A    between atoms: _257  and  _259
REMARK   93  A    between atoms: _259  and  _260
REMARK   94  A    between atoms: _259  and  _262
REMARK   95  A    between atoms: _262  and  _263
REMARK   96  A    between atoms: _263  and  _264
REMARK   97  A    between atoms: _264  and  _265
REMARK   98  A    between atoms: _274  and  _276
REMARK   99  A    between atoms: _276  and  _277
REMARK  100  A    between atoms: _276  and  _279
REMARK  101  A    between atoms: _279  and  _280
REMARK  102  A    between atoms: _290  and  _292
REMARK  103  A    between atoms: _292  and  _293
REMARK  104  A    between atoms: _292  and  _295
REMARK  105  A    between atoms: _295  and  _296
REMARK  106  A    between atoms: _301  and  _303
REMARK  107  A    between atoms: _303  and  _304
REMARK  108  A    between atoms: _303  and  _306
REMARK  109  A    between atoms: _306  and  _307
REMARK  110  A    between atoms: _311  and  ZN_433
REMARK  111  A    between atoms: _312  and  _314
REMARK  112  A    between atoms: _314  and  _315
REMARK  113  A    between atoms: _314  and  _317
REMARK  114  A    between atoms: _317  and  _318
REMARK  115  A    between atoms: _321  and  _323
REMARK  116  A    between atoms: _323  and  _324
REMARK  117  A    between atoms: _326  and  _328
REMARK  118  A    between atoms: _328  and  _329
REMARK  119  A    between atoms: _328  and  _331
REMARK  120  A    between atoms: _331  and  _332
REMARK  121  A    between atoms: _335  and  _337
REMARK  122  A    between atoms: _337  and  _338
REMARK  123  A    between atoms: _340  and  _342
REMARK  124  A    between atoms: _342  and  _343
REMARK  125  A    between atoms: _342  and  _345
REMARK  126  A    between atoms: _345  and  _346
REMARK  127  A    between atoms: _349  and  _351
REMARK  128  A    between atoms: _351  and  _352
REMARK  129  A    between atoms: _355  and  _357
REMARK  130  A    between atoms: _357  and  _358
REMARK  131  A    between atoms: _357  and  _360
REMARK  132  A    between atoms: _360  and  _361
REMARK  133  A    between atoms: _366  and  _367
REMARK  134  A    between atoms: _369  and  _371
REMARK  135  A    between atoms: _371  and  _372
REMARK  136  A    between atoms: _371  and  _374
REMARK  137  A    between atoms: _374  and  _375
REMARK  138  A    between atoms: _378  and  _380
REMARK  139  A    between atoms: _380  and  _381
REMARK  140  A    between atoms: _380  and  _383
REMARK  141  A    between atoms: _383  and  _384
REMARK  142  A    between atoms: _387  and  _389
REMARK  143  A    between atoms: _389  and  _390
REMARK  144  A    between atoms: _389  and  _392
REMARK  145  A    between atoms: _392  and  _393
REMARK  146  A    between atoms: _393  and  _394
REMARK  147  A    between atoms: _397  and  _399
REMARK  148  A    between atoms: _399  and  _400
REMARK  149  A    between atoms: _399  and  _402
REMARK  150  A    between atoms: _402  and  _403
REMARK  151  A    between atoms: _403  and  _404
REMARK  152  A    between atoms: _404  and  _405
REMARK  153  A    between atoms: _414  and  _416
REMARK  154  A    between atoms: _416  and  _417
REMARK  155  A    between atoms: _419  and  _421
REMARK  156  A    between atoms: _421  and  _422
REMARK  157  A    between atoms: _421  and  _424
REMARK  158  A    between atoms: _424  and  _425
REMARK  159  A    between atoms: _428  and  _430
REMARK  160  A    between atoms: _430  and  _431
REMARK                            x       y       z     vdW  Elec       q    Type
REMARK                         _______ _______ _______ _____ _____    ______ ____
ROOT
ATOM      1  O   HOH     1      34.302  67.641  12.755  0.00  0.00    +0.000 OA
ENDROOT
TORSDOF 0
REMARK  Name = ../refined-set-2016/3ejq/3ejq_pocket.pdb
REMARK  160 active torsions:
REMARK  status: ('A' for Active; 'I' for Inactive)
REMARK    1  A    between atoms: _1  and  _3
REMARK    2  A    between atoms: _14  and  _17
REMARK    3  A    between atoms: _17  and  _18
REMARK    4  A    between atoms: _25  and  _26
REMARK    5  A    between atoms: _33  and  _34
REMARK    6  A    between atoms: _39  and  _41
REMARK    7  A    between atoms: _41  and  _42
REMARK    8  A    between atoms: _44  and  _46
REMARK    9  A    between atoms: _46  and  _47
REMARK   10  A    between atoms: _46  and  _49
REMARK   11  A    between atoms: _49  and  _50
REMARK   12  A    between atoms: _60  and  _62
REMARK   13  A    between atoms: _62  and  _63
REMARK   14  A    between atoms: _62  and  _65
REMARK   15  A    between atoms: _65  and  _66
REMARK   16  A    between atoms: _69  and  _71
REMARK   17  A    between atoms: _71  and  _72
REMARK   18  A    between atoms: _71  and  _74
REMARK   19  A    between atoms: _74  and  _75
REMARK   20  A    between atoms: _80  and  _81
REMARK   21  A    between atoms: _83  and  _85
REMARK   22  A    between atoms: _85  and  _86
REMARK   23  A    between atoms: _85  and  _88
REMARK   24  A    between atoms: _88  and  _89
REMARK   25  A    between atoms: _89  and  _90
REMARK   26  A    between atoms: _93  and  _95
REMARK   27  A    between atoms: _95  and  _96
REMARK   28  A    between atoms: _95  and  _98
REMARK   29  A    between atoms: _98  and  _99
REMARK   30  A    between atoms: _99  and  _100
REMARK   31  A    between atoms: _102  and  _104
REMARK   32  A    between atoms: _104  and  _105
REMARK   33  A    between atoms: _104  and  _107
REMARK   34  A    between atoms: _107  and  _108
REMARK   35  A    between atoms: _111  and  _113
REMARK   36  A    between atoms: _113  and  _114
REMARK   37  A    between atoms: _113  and  _116
REMARK   38  A    between atoms: _116  and  _117
REMARK   39  A    between atoms: _117  and  _119
REMARK   40  A    between atoms: _119  and  ZN_433
REMARK   41  A    between atoms: _121  and  _122
REMARK   42  A    between atoms: _127  and  _129
REMARK   43  A    between atoms: _129  and  _130
REMARK   44  A    between atoms: _129  and  _132
REMARK   45  A    between atoms: _132  and  _133
REMARK   46  A    between atoms: _139  and  _141
REMARK   47  A    between atoms: _141  and  _142
REMARK   48  A    between atoms: _141  and  _144
REMARK   49  A    between atoms: _144  and  _145
REMARK   50  A    between atoms: _145  and  _146
REMARK   51  A    between atoms: _151  and  _153
REMARK   52  A    between atoms: _153  and  _154
REMARK   53  A    between atoms: _153  and  _156
REMARK   54  A    between atoms: _156  and  _157
REMARK   55  A    between atoms: _157  and  _158
REMARK   56  A    between atoms: _158  and  _159
REMARK   57  A    between atoms: _168  and  _170
REMARK   58  A    between atoms: _170  and  _171
REMARK   59  A    between atoms: _170  and  _173
REMARK   60  A    between atoms: _173  and  _174
REMARK   61  A    between atoms: _179  and  _180
REMARK   62  A    between atoms: _182  and  _184
REMARK   63  A    between atoms: _184  and  _185
REMARK   64  A    between atoms: _184  and  _187
REMARK   65  A    between atoms: _187  and  _188
REMARK   66  A    between atoms: _190  and  _192
REMARK   67  A    between atoms: _192  and  _193
REMARK   68  A    between atoms: _192  and  _195
REMARK   69  A    between atoms: _195  and  _196
REMARK   70  A    between atoms: _201  and  _202
REMARK   71  A    between atoms: _204  and  _206
REMARK   72  A    between atoms: _206  and  _207
REMARK   73  A    between atoms: _206  and  _209
REMARK   74  A    between atoms: _209  and  _210
REMARK   75  A    between atoms: _213  and  _215
REMARK   76  A    between atoms: _215  and  _216
REMARK   77  A    between atoms: _215  and  _218
REMARK   78  A    between atoms: _218  and  _219
REMARK   79  A    between atoms: _222  and  _224
REMARK   80  A    between atoms: _224  and  _225
REMARK   81  A    between atoms: _224  and  _227
REMARK   82  A    between atoms: _227  and  _228
REMARK   83  A    between atoms: _234  and  _236
REMARK   84  A    between atoms: _236  and  _237
REMARK   85  A    between atoms: _236  and  _239
REMARK   86  A    between atoms: _239  and  _240
REMARK   87  A    between atoms: _245  and  _246
REMARK   88  A    between atoms: _248  and  _250
REMARK   89  A    between atoms: _250  and  _251
REMARK   90  A    between atoms: _250  and  _253
REMARK   91  A    between atoms: _253  and  _254
REMARK   92  A    between atoms: _257  and  _259
REMARK   93  A    between atoms: _259  and  _260
REMARK   94  A    between atoms: _259  and  _262
REMARK   95  A    between atoms: _262  and  _263
REMARK   96  A    between atoms: _263  and  _264
REMARK   97  A    between atoms: _264  and  _265
REMARK   98  A    between atoms: _274  and  _276
REMARK   99  A    between atoms: _276  and  _277
REMARK  100  A    between atoms: _276  and  _279
REMARK  101  A    between atoms: _279  and  _280
REMARK  102  A    between atoms: _290  and  _292
REMARK  103  A    between atoms: _292  and  _293
REMARK  104  A    between atoms: _292  and  _295
REMARK  105  A    between atoms: _295  and  _296
REMARK  106  A    between atoms: _301  and  _303
REMARK  107  A    between atoms: _303  and  _304
REMARK  108  A    between atoms: _303  and  _306
REMARK  109  A    between atoms: _306  and  _307
REMARK  110  A    between atoms: _311  and  ZN_433
REMARK  111  A    between atoms: _312  and  _314
REMARK  112  A    between atoms: _314  and  _315
REMARK  113  A    between atoms: _314  and  _317
REMARK  114  A    between atoms: _317  and  _318
REMARK  115  A    between atoms: _321  and  _323
REMARK  116  A    between atoms: _323  and  _324
REMARK  117  A    between atoms: _326  and  _328
REMARK  118  A    between atoms: _328  and  _329
REMARK  119  A    between atoms: _328  and  _331
REMARK  120  A    between atoms: _331  and  _332
REMARK  121  A    between atoms: _335  and  _337
REMARK  122  A    between atoms: _337  and  _338
REMARK  123  A    between atoms: _340  and  _342
REMARK  124  A    between atoms: _342  and  _343
REMARK  125  A    between atoms: _342  and  _345
REMARK  126  A    between atoms: _345  and  _346
REMARK  127  A    between atoms: _349  and  _351
REMARK  128  A    between atoms: _351  and  _352
REMARK  129  A    between atoms: _355  and  _357
REMARK  130  A    between atoms: _357  and  _358
REMARK  131  A    between atoms: _357  and  _360
REMARK  132  A    between atoms: _360  and  _361
REMARK  133  A    between atoms: _366  and  _367
REMARK  134  A    between atoms: _369  and  _371
REMARK  135  A    between atoms: _371  and  _372
REMARK  136  A    between atoms: _371  and  _374
REMARK  137  A    between atoms: _374  and  _375
REMARK  138  A    between atoms: _378  and  _380
REMARK  139  A    between atoms: _380  and  _381
REMARK  140  A    between atoms: _380  and  _383
REMARK  141  A    between atoms: _383  and  _384
REMARK  142  A    between atoms: _387  and  _389
REMARK  143  A    between atoms: _389  and  _390
REMARK  144  A    between atoms: _389  and  _392
REMARK  145  A    between atoms: _392  and  _393
REMARK  146  A    between atoms: _393  and  _394
REMARK  147  A    between atoms: _397  and  _399
REMARK  148  A    between atoms: _399  and  _400
REMARK  149  A    between atoms: _399  and  _402
REMARK  150  A    between atoms: _402  and  _403
REMARK  151  A    between atoms: _403  and  _404
REMARK  152  A    between atoms: _404  and  _405
REMARK  153  A    between atoms: _414  and  _416
REMARK  154  A    between atoms: _416  and  _417
REMARK  155  A    between atoms: _419  and  _421
REMARK  156  A    between atoms: _421  and  _422
REMARK  157  A    between atoms: _421  and  _424
REMARK  158  A    between atoms: _424  and  _425
REMARK  159  A    between atoms: _428  and  _430
REMARK  160  A    between atoms: _430  and  _431
REMARK                            x       y       z     vdW  Elec       q    Type
REMARK                         _______ _______ _______ _____ _____    ______ ____
ROOT
ATOM      1  O   HOH     1      31.257  68.231  14.401  0.00  0.00    +0.000 OA
ENDROOT
TORSDOF 0
REMARK  Name = ../refined-set-2016/3ejq/3ejq_pocket.pdb
REMARK  160 active torsions:
REMARK  status: ('A' for Active; 'I' for Inactive)
REMARK    1  A    between atoms: _1  and  _3
REMARK    2  A    between atoms: _14  and  _17
REMARK    3  A    between atoms: _17  and  _18
REMARK    4  A    between atoms: _25  and  _26
REMARK    5  A    between atoms: _33  and  _34
REMARK    6  A    between atoms: _39  and  _41
REMARK    7  A    between atoms: _41  and  _42
REMARK    8  A    between atoms: _44  and  _46
REMARK    9  A    between atoms: _46  and  _47
REMARK   10  A    between atoms: _46  and  _49
REMARK   11  A    between atoms: _49  and  _50
REMARK   12  A    between atoms: _60  and  _62
REMARK   13  A    between atoms: _62  and  _63
REMARK   14  A    between atoms: _62  and  _65
REMARK   15  A    between atoms: _65  and  _66
REMARK   16  A    between atoms: _69  and  _71
REMARK   17  A    between atoms: _71  and  _72
REMARK   18  A    between atoms: _71  and  _74
REMARK   19  A    between atoms: _74  and  _75
REMARK   20  A    between atoms: _80  and  _81
REMARK   21  A    between atoms: _83  and  _85
REMARK   22  A    between atoms: _85  and  _86
REMARK   23  A    between atoms: _85  and  _88
REMARK   24  A    between atoms: _88  and  _89
REMARK   25  A    between atoms: _89  and  _90
REMARK   26  A    between atoms: _93  and  _95
REMARK   27  A    between atoms: _95  and  _96
REMARK   28  A    between atoms: _95  and  _98
REMARK   29  A    between atoms: _98  and  _99
REMARK   30  A    between atoms: _99  and  _100
REMARK   31  A    between atoms: _102  and  _104
REMARK   32  A    between atoms: _104  and  _105
REMARK   33  A    between atoms: _104  and  _107
REMARK   34  A    between atoms: _107  and  _108
REMARK   35  A    between atoms: _111  and  _113
REMARK   36  A    between atoms: _113  and  _114
REMARK   37  A    between atoms: _113  and  _116
REMARK   38  A    between atoms: _116  and  _117
REMARK   39  A    between atoms: _117  and  _119
REMARK   40  A    between atoms: _119  and  ZN_433
REMARK   41  A    between atoms: _121  and  _122
REMARK   42  A    between atoms: _127  and  _129
REMARK   43  A    between atoms: _129  and  _130
REMARK   44  A    between atoms: _129  and  _132
REMARK   45  A    between atoms: _132  and  _133
REMARK   46  A    between atoms: _139  and  _141
REMARK   47  A    between atoms: _141  and  _142
REMARK   48  A    between atoms: _141  and  _144
REMARK   49  A    between atoms: _144  and  _145
REMARK   50  A    between atoms: _145  and  _146
REMARK   51  A    between atoms: _151  and  _153
REMARK   52  A    between atoms: _153  and  _154
REMARK   53  A    between atoms: _153  and  _156
REMARK   54  A    between atoms: _156  and  _157
REMARK   55  A    between atoms: _157  and  _158
REMARK   56  A    between atoms: _158  and  _159
REMARK   57  A    between atoms: _168  and  _170
REMARK   58  A    between atoms: _170  and  _171
REMARK   59  A    between atoms: _170  and  _173
REMARK   60  A    between atoms: _173  and  _174
REMARK   61  A    between atoms: _179  and  _180
REMARK   62  A    between atoms: _182  and  _184
REMARK   63  A    between atoms: _184  and  _185
REMARK   64  A    between atoms: _184  and  _187
REMARK   65  A    between atoms: _187  and  _188
REMARK   66  A    between atoms: _190  and  _192
REMARK   67  A    between atoms: _192  and  _193
REMARK   68  A    between atoms: _192  and  _195
REMARK   69  A    between atoms: _195  and  _196
REMARK   70  A    between atoms: _201  and  _202
REMARK   71  A    between atoms: _204  and  _206
REMARK   72  A    between atoms: _206  and  _207
REMARK   73  A    between atoms: _206  and  _209
REMARK   74  A    between atoms: _209  and  _210
REMARK   75  A    between atoms: _213  and  _215
REMARK   76  A    between atoms: _215  and  _216
REMARK   77  A    between atoms: _215  and  _218
REMARK   78  A    between atoms: _218  and  _219
REMARK   79  A    between atoms: _222  and  _224
REMARK   80  A    between atoms: _224  and  _225
REMARK   81  A    between atoms: _224  and  _227
REMARK   82  A    between atoms: _227  and  _228
REMARK   83  A    between atoms: _234  and  _236
REMARK   84  A    between atoms: _236  and  _237
REMARK   85  A    between atoms: _236  and  _239
REMARK   86  A    between atoms: _239  and  _240
REMARK   87  A    between atoms: _245  and  _246
REMARK   88  A    between atoms: _248  and  _250
REMARK   89  A    between atoms: _250  and  _251
REMARK   90  A    between atoms: _250  and  _253
REMARK   91  A    between atoms: _253  and  _254
REMARK   92  A    between atoms: _257  and  _259
REMARK   93  A    between atoms: _259  and  _260
REMARK   94  A    between atoms: _259  and  _262
REMARK   95  A    between atoms: _262  and  _263
REMARK   96  A    between atoms: _263  and  _264
REMARK   97  A    between atoms: _264  and  _265
REMARK   98  A    between atoms: _274  and  _276
REMARK   99  A    between atoms: _276  and  _277
REMARK  100  A    between atoms: _276  and  _279
REMARK  101  A    between atoms: _279  and  _280
REMARK  102  A    between atoms: _290  and  _292
REMARK  103  A    between atoms: _292  and  _293
REMARK  104  A    between atoms: _292  and  _295
REMARK  105  A    between atoms: _295  and  _296
REMARK  106  A    between atoms: _301  and  _303
REMARK  107  A    between atoms: _303  and  _304
REMARK  108  A    between atoms: _303  and  _306
REMARK  109  A    between atoms: _306  and  _307
REMARK  110  A    between atoms: _311  and  ZN_433
REMARK  111  A    between atoms: _312  and  _314
REMARK  112  A    between atoms: _314  and  _315
REMARK  113  A    between atoms: _314  and  _317
REMARK  114  A    between atoms: _317  and  _318
REMARK  115  A    between atoms: _321  and  _323
REMARK  116  A    between atoms: _323  and  _324
REMARK  117  A    between atoms: _326  and  _328
REMARK  118  A    between atoms: _328  and  _329
REMARK  119  A    between atoms: _328  and  _331
REMARK  120  A    between atoms: _331  and  _332
REMARK  121  A    between atoms: _335  and  _337
REMARK  122  A    between atoms: _337  and  _338
REMARK  123  A    between atoms: _340  and  _342
REMARK  124  A    between atoms: _342  and  _343
REMARK  125  A    between atoms: _342  and  _345
REMARK  126  A    between atoms: _345  and  _346
REMARK  127  A    between atoms: _349  and  _351
REMARK  128  A    between atoms: _351  and  _352
REMARK  129  A    between atoms: _355  and  _357
REMARK  130  A    between atoms: _357  and  _358
REMARK  131  A    between atoms: _357  and  _360
REMARK  132  A    between atoms: _360  and  _361
REMARK  133  A    between atoms: _366  and  _367
REMARK  134  A    between atoms: _369  and  _371
REMARK  135  A    between atoms: _371  and  _372
REMARK  136  A    between atoms: _371  and  _374
REMARK  137  A    between atoms: _374  and  _375
REMARK  138  A    between atoms: _378  and  _380
REMARK  139  A    between atoms: _380  and  _381
REMARK  140  A    between atoms: _380  and  _383
REMARK  141  A    between atoms: _383  and  _384
REMARK  142  A    between atoms: _387  and  _389
REMARK  143  A    between atoms: _389  and  _390
REMARK  144  A    between atoms: _389  and  _392
REMARK  145  A    between atoms: _392  and  _393
REMARK  146  A    between atoms: _393  and  _394
REMARK  147  A    between atoms: _397  and  _399
REMARK  148  A    between atoms: _399  and  _400
REMARK  149  A    between atoms: _399  and  _402
REMARK  150  A    between atoms: _402  and  _403
REMARK  151  A    between atoms: _403  and  _404
REMARK  152  A    between atoms: _404  and  _405
REMARK  153  A    between atoms: _414  and  _416
REMARK  154  A    between atoms: _416  and  _417
REMARK  155  A    between atoms: _419  and  _421
REMARK  156  A    between atoms: _421  and  _422
REMARK  157  A    between atoms: _421  and  _424
REMARK  158  A    between atoms: _424  and  _425
REMARK  159  A    between atoms: _428  and  _430
REMARK  160  A    between atoms: _430  and  _431
REMARK                            x       y       z     vdW  Elec       q    Type
REMARK                         _______ _______ _______ _____ _____    ______ ____
ROOT
ATOM      1  O   HOH     1      28.590  69.044  12.427  0.00  0.00    +0.000 OA
ENDROOT
TORSDOF 0
REMARK  Name = ../refined-set-2016/3ejq/3ejq_pocket.pdb
REMARK  160 active torsions:
REMARK  status: ('A' for Active; 'I' for Inactive)
REMARK    1  A    between atoms: _1  and  _3
REMARK    2  A    between atoms: _14  and  _17
REMARK    3  A    between atoms: _17  and  _18
REMARK    4  A    between atoms: _25  and  _26
REMARK    5  A    between atoms: _33  and  _34
REMARK    6  A    between atoms: _39  and  _41
REMARK    7  A    between atoms: _41  and  _42
REMARK    8  A    between atoms: _44  and  _46
REMARK    9  A    between atoms: _46  and  _47
REMARK   10  A    between atoms: _46  and  _49
REMARK   11  A    between atoms: _49  and  _50
REMARK   12  A    between atoms: _60  and  _62
REMARK   13  A    between atoms: _62  and  _63
REMARK   14  A    between atoms: _62  and  _65
REMARK   15  A    between atoms: _65  and  _66
REMARK   16  A    between atoms: _69  and  _71
REMARK   17  A    between atoms: _71  and  _72
REMARK   18  A    between atoms: _71  and  _74
REMARK   19  A    between atoms: _74  and  _75
REMARK   20  A    between atoms: _80  and  _81
REMARK   21  A    between atoms: _83  and  _85
REMARK   22  A    between atoms: _85  and  _86
REMARK   23  A    between atoms: _85  and  _88
REMARK   24  A    between atoms: _88  and  _89
REMARK   25  A    between atoms: _89  and  _90
REMARK   26  A    between atoms: _93  and  _95
REMARK   27  A    between atoms: _95  and  _96
REMARK   28  A    between atoms: _95  and  _98
REMARK   29  A    between atoms: _98  and  _99
REMARK   30  A    between atoms: _99  and  _100
REMARK   31  A    between atoms: _102  and  _104
REMARK   32  A    between atoms: _104  and  _105
REMARK   33  A    between atoms: _104  and  _107
REMARK   34  A    between atoms: _107  and  _108
REMARK   35  A    between atoms: _111  and  _113
REMARK   36  A    between atoms: _113  and  _114
REMARK   37  A    between atoms: _113  and  _116
REMARK   38  A    between atoms: _116  and  _117
REMARK   39  A    between atoms: _117  and  _119
REMARK   40  A    between atoms: _119  and  ZN_433
REMARK   41  A    between atoms: _121  and  _122
REMARK   42  A    between atoms: _127  and  _129
REMARK   43  A    between atoms: _129  and  _130
REMARK   44  A    between atoms: _129  and  _132
REMARK   45  A    between atoms: _132  and  _133
REMARK   46  A    between atoms: _139  and  _141
REMARK   47  A    between atoms: _141  and  _142
REMARK   48  A    between atoms: _141  and  _144
REMARK   49  A    between atoms: _144  and  _145
REMARK   50  A    between atoms: _145  and  _146
REMARK   51  A    between atoms: _151  and  _153
REMARK   52  A    between atoms: _153  and  _154
REMARK   53  A    between atoms: _153  and  _156
REMARK   54  A    between atoms: _156  and  _157
REMARK   55  A    between atoms: _157  and  _158
REMARK   56  A    between atoms: _158  and  _159
REMARK   57  A    between atoms: _168  and  _170
REMARK   58  A    between atoms: _170  and  _171
REMARK   59  A    between atoms: _170  and  _173
REMARK   60  A    between atoms: _173  and  _174
REMARK   61  A    between atoms: _179  and  _180
REMARK   62  A    between atoms: _182  and  _184
REMARK   63  A    between atoms: _184  and  _185
REMARK   64  A    between atoms: _184  and  _187
REMARK   65  A    between atoms: _187  and  _188
REMARK   66  A    between atoms: _190  and  _192
REMARK   67  A    between atoms: _192  and  _193
REMARK   68  A    between atoms: _192  and  _195
REMARK   69  A    between atoms: _195  and  _196
REMARK   70  A    between atoms: _201  and  _202
REMARK   71  A    between atoms: _204  and  _206
REMARK   72  A    between atoms: _206  and  _207
REMARK   73  A    between atoms: _206  and  _209
REMARK   74  A    between atoms: _209  and  _210
REMARK   75  A    between atoms: _213  and  _215
REMARK   76  A    between atoms: _215  and  _216
REMARK   77  A    between atoms: _215  and  _218
REMARK   78  A    between atoms: _218  and  _219
REMARK   79  A    between atoms: _222  and  _224
REMARK   80  A    between atoms: _224  and  _225
REMARK   81  A    between atoms: _224  and  _227
REMARK   82  A    between atoms: _227  and  _228
REMARK   83  A    between atoms: _234  and  _236
REMARK   84  A    between atoms: _236  and  _237
REMARK   85  A    between atoms: _236  and  _239
REMARK   86  A    between atoms: _239  and  _240
REMARK   87  A    between atoms: _245  and  _246
REMARK   88  A    between atoms: _248  and  _250
REMARK   89  A    between atoms: _250  and  _251
REMARK   90  A    between atoms: _250  and  _253
REMARK   91  A    between atoms: _253  and  _254
REMARK   92  A    between atoms: _257  and  _259
REMARK   93  A    between atoms: _259  and  _260
REMARK   94  A    between atoms: _259  and  _262
REMARK   95  A    between atoms: _262  and  _263
REMARK   96  A    between atoms: _263  and  _264
REMARK   97  A    between atoms: _264  and  _265
REMARK   98  A    between atoms: _274  and  _276
REMARK   99  A    between atoms: _276  and  _277
REMARK  100  A    between atoms: _276  and  _279
REMARK  101  A    between atoms: _279  and  _280
REMARK  102  A    between atoms: _290  and  _292
REMARK  103  A    between atoms: _292  and  _293
REMARK  104  A    between atoms: _292  and  _295
REMARK  105  A    between atoms: _295  and  _296
REMARK  106  A    between atoms: _301  and  _303
REMARK  107  A    between atoms: _303  and  _304
REMARK  108  A    between atoms: _303  and  _306
REMARK  109  A    between atoms: _306  and  _307
REMARK  110  A    between atoms: _311  and  ZN_433
REMARK  111  A    between atoms: _312  and  _314
REMARK  112  A    between atoms: _314  and  _315
REMARK  113  A    between atoms: _314  and  _317
REMARK  114  A    between atoms: _317  and  _318
REMARK  115  A    between atoms: _321  and  _323
REMARK  116  A    between atoms: _323  and  _324
REMARK  117  A    between atoms: _326  and  _328
REMARK  118  A    between atoms: _328  and  _329
REMARK  119  A    between atoms: _328  and  _331
REMARK  120  A    between atoms: _331  and  _332
REMARK  121  A    between atoms: _335  and  _337
REMARK  122  A    between atoms: _337  and  _338
REMARK  123  A    between atoms: _340  and  _342
REMARK  124  A    between atoms: _342  and  _343
REMARK  125  A    between atoms: _342  and  _345
REMARK  126  A    between atoms: _345  and  _346
REMARK  127  A    between atoms: _349  and  _351
REMARK  128  A    between atoms: _351  and  _352
REMARK  129  A    between atoms: _355  and  _357
REMARK  130  A    between atoms: _357  and  _358
REMARK  131  A    between atoms: _357  and  _360
REMARK  132  A    between atoms: _360  and  _361
REMARK  133  A    between atoms: _366  and  _367
REMARK  134  A    between atoms: _369  and  _371
REMARK  135  A    between atoms: _371  and  _372
REMARK  136  A    between atoms: _371  and  _374
REMARK  137  A    between atoms: _374  and  _375
REMARK  138  A    between atoms: _378  and  _380
REMARK  139  A    between atoms: _380  and  _381
REMARK  140  A    between atoms: _380  and  _383
REMARK  141  A    between atoms: _383  and  _384
REMARK  142  A    between atoms: _387  and  _389
REMARK  143  A    between atoms: _389  and  _390
REMARK  144  A    between atoms: _389  and  _392
REMARK  145  A    between atoms: _392  and  _393
REMARK  146  A    between atoms: _393  and  _394
REMARK  147  A    between atoms: _397  and  _399
REMARK  148  A    between atoms: _399  and  _400
REMARK  149  A    between atoms: _399  and  _402
REMARK  150  A    between atoms: _402  and  _403
REMARK  151  A    between atoms: _403  and  _404
REMARK  152  A    between atoms: _404  and  _405
REMARK  153  A    between atoms: _414  and  _416
REMARK  154  A    between atoms: _416  and  _417
REMARK  155  A    between atoms: _419  and  _421
REMARK  156  A    between atoms: _421  and  _422
REMARK  157  A    between atoms: _421  and  _424
REMARK  158  A    between atoms: _424  and  _425
REMARK  159  A    between atoms: _428  and  _430
REMARK  160  A    between atoms: _430  and  _431
REMARK                            x       y       z     vdW  Elec       q    Type
REMARK                         _______ _______ _______ _____ _____    ______ ____
ROOT
ATOM      1  O   HOH     1      24.928  67.423  14.769  0.00  0.00    +0.000 OA
ENDROOT
TORSDOF 0
REMARK  Name = ../refined-set-2016/3ejq/3ejq_pocket.pdb
REMARK  160 active torsions:
REMARK  status: ('A' for Active; 'I' for Inactive)
REMARK    1  A    between atoms: _1  and  _3
REMARK    2  A    between atoms: _14  and  _17
REMARK    3  A    between atoms: _17  and  _18
REMARK    4  A    between atoms: _25  and  _26
REMARK    5  A    between atoms: _33  and  _34
REMARK    6  A    between atoms: _39  and  _41
REMARK    7  A    between atoms: _41  and  _42
REMARK    8  A    between atoms: _44  and  _46
REMARK    9  A    between atoms: _46  and  _47
REMARK   10  A    between atoms: _46  and  _49
REMARK   11  A    between atoms: _49  and  _50
REMARK   12  A    between atoms: _60  and  _62
REMARK   13  A    between atoms: _62  and  _63
REMARK   14  A    between atoms: _62  and  _65
REMARK   15  A    between atoms: _65  and  _66
REMARK   16  A    between atoms: _69  and  _71
REMARK   17  A    between atoms: _71  and  _72
REMARK   18  A    between atoms: _71  and  _74
REMARK   19  A    between atoms: _74  and  _75
REMARK   20  A    between atoms: _80  and  _81
REMARK   21  A    between atoms: _83  and  _85
REMARK   22  A    between atoms: _85  and  _86
REMARK   23  A    between atoms: _85  and  _88
REMARK   24  A    between atoms: _88  and  _89
REMARK   25  A    between atoms: _89  and  _90
REMARK   26  A    between atoms: _93  and  _95
REMARK   27  A    between atoms: _95  and  _96
REMARK   28  A    between atoms: _95  and  _98
REMARK   29  A    between atoms: _98  and  _99
REMARK   30  A    between atoms: _99  and  _100
REMARK   31  A    between atoms: _102  and  _104
REMARK   32  A    between atoms: _104  and  _105
REMARK   33  A    between atoms: _104  and  _107
REMARK   34  A    between atoms: _107  and  _108
REMARK   35  A    between atoms: _111  and  _113
REMARK   36  A    between atoms: _113  and  _114
REMARK   37  A    between atoms: _113  and  _116
REMARK   38  A    between atoms: _116  and  _117
REMARK   39  A    between atoms: _117  and  _119
REMARK   40  A    between atoms: _119  and  ZN_433
REMARK   41  A    between atoms: _121  and  _122
REMARK   42  A    between atoms: _127  and  _129
REMARK   43  A    between atoms: _129  and  _130
REMARK   44  A    between atoms: _129  and  _132
REMARK   45  A    between atoms: _132  and  _133
REMARK   46  A    between atoms: _139  and  _141
REMARK   47  A    between atoms: _141  and  _142
REMARK   48  A    between atoms: _141  and  _144
REMARK   49  A    between atoms: _144  and  _145
REMARK   50  A    between atoms: _145  and  _146
REMARK   51  A    between atoms: _151  and  _153
REMARK   52  A    between atoms: _153  and  _154
REMARK   53  A    between atoms: _153  and  _156
REMARK   54  A    between atoms: _156  and  _157
REMARK   55  A    between atoms: _157  and  _158
REMARK   56  A    between atoms: _158  and  _159
REMARK   57  A    between atoms: _168  and  _170
REMARK   58  A    between atoms: _170  and  _171
REMARK   59  A    between atoms: _170  and  _173
REMARK   60  A    between atoms: _173  and  _174
REMARK   61  A    between atoms: _179  and  _180
REMARK   62  A    between atoms: _182  and  _184
REMARK   63  A    between atoms: _184  and  _185
REMARK   64  A    between atoms: _184  and  _187
REMARK   65  A    between atoms: _187  and  _188
REMARK   66  A    between atoms: _190  and  _192
REMARK   67  A    between atoms: _192  and  _193
REMARK   68  A    between atoms: _192  and  _195
REMARK   69  A    between atoms: _195  and  _196
REMARK   70  A    between atoms: _201  and  _202
REMARK   71  A    between atoms: _204  and  _206
REMARK   72  A    between atoms: _206  and  _207
REMARK   73  A    between atoms: _206  and  _209
REMARK   74  A    between atoms: _209  and  _210
REMARK   75  A    between atoms: _213  and  _215
REMARK   76  A    between atoms: _215  and  _216
REMARK   77  A    between atoms: _215  and  _218
REMARK   78  A    between atoms: _218  and  _219
REMARK   79  A    between atoms: _222  and  _224
REMARK   80  A    between atoms: _224  and  _225
REMARK   81  A    between atoms: _224  and  _227
REMARK   82  A    between atoms: _227  and  _228
REMARK   83  A    between atoms: _234  and  _236
REMARK   84  A    between atoms: _236  and  _237
REMARK   85  A    between atoms: _236  and  _239
REMARK   86  A    between atoms: _239  and  _240
REMARK   87  A    between atoms: _245  and  _246
REMARK   88  A    between atoms: _248  and  _250
REMARK   89  A    between atoms: _250  and  _251
REMARK   90  A    between atoms: _250  and  _253
REMARK   91  A    between atoms: _253  and  _254
REMARK   92  A    between atoms: _257  and  _259
REMARK   93  A    between atoms: _259  and  _260
REMARK   94  A    between atoms: _259  and  _262
REMARK   95  A    between atoms: _262  and  _263
REMARK   96  A    between atoms: _263  and  _264
REMARK   97  A    between atoms: _264  and  _265
REMARK   98  A    between atoms: _274  and  _276
REMARK   99  A    between atoms: _276  and  _277
REMARK  100  A    between atoms: _276  and  _279
REMARK  101  A    between atoms: _279  and  _280
REMARK  102  A    between atoms: _290  and  _292
REMARK  103  A    between atoms: _292  and  _293
REMARK  104  A    between atoms: _292  and  _295
REMARK  105  A    between atoms: _295  and  _296
REMARK  106  A    between atoms: _301  and  _303
REMARK  107  A    between atoms: _303  and  _304
REMARK  108  A    between atoms: _303  and  _306
REMARK  109  A    between atoms: _306  and  _307
REMARK  110  A    between atoms: _311  and  ZN_433
REMARK  111  A    between atoms: _312  and  _314
REMARK  112  A    between atoms: _314  and  _315
REMARK  113  A    between atoms: _314  and  _317
REMARK  114  A    between atoms: _317  and  _318
REMARK  115  A    between atoms: _321  and  _323
REMARK  116  A    between atoms: _323  and  _324
REMARK  117  A    between atoms: _326  and  _328
REMARK  118  A    between atoms: _328  and  _329
REMARK  119  A    between atoms: _328  and  _331
REMARK  120  A    between atoms: _331  and  _332
REMARK  121  A    between atoms: _335  and  _337
REMARK  122  A    between atoms: _337  and  _338
REMARK  123  A    between atoms: _340  and  _342
REMARK  124  A    between atoms: _342  and  _343
REMARK  125  A    between atoms: _342  and  _345
REMARK  126  A    between atoms: _345  and  _346
REMARK  127  A    between atoms: _349  and  _351
REMARK  128  A    between atoms: _351  and  _352
REMARK  129  A    between atoms: _355  and  _357
REMARK  130  A    between atoms: _357  and  _358
REMARK  131  A    between atoms: _357  and  _360
REMARK  132  A    between atoms: _360  and  _361
REMARK  133  A    between atoms: _366  and  _367
REMARK  134  A    between atoms: _369  and  _371
REMARK  135  A    between atoms: _371  and  _372
REMARK  136  A    between atoms: _371  and  _374
REMARK  137  A    between atoms: _374  and  _375
REMARK  138  A    between atoms: _378  and  _380
REMARK  139  A    between atoms: _380  and  _381
REMARK  140  A    between atoms: _380  and  _383
REMARK  141  A    between atoms: _383  and  _384
REMARK  142  A    between atoms: _387  and  _389
REMARK  143  A    between atoms: _389  and  _390
REMARK  144  A    between atoms: _389  and  _392
REMARK  145  A    between atoms: _392  and  _393
REMARK  146  A    between atoms: _393  and  _394
REMARK  147  A    between atoms: _397  and  _399
REMARK  148  A    between atoms: _399  and  _400
REMARK  149  A    between atoms: _399  and  _402
REMARK  150  A    between atoms: _402  and  _403
REMARK  151  A    between atoms: _403  and  _404
REMARK  152  A    between atoms: _404  and  _405
REMARK  153  A    between atoms: _414  and  _416
REMARK  154  A    between atoms: _416  and  _417
REMARK  155  A    between atoms: _419  and  _421
REMARK  156  A    between atoms: _421  and  _422
REMARK  157  A    between atoms: _421  and  _424
REMARK  158  A    between atoms: _424  and  _425
REMARK  159  A    between atoms: _428  and  _430
REMARK  160  A    between atoms: _430  and  _431
REMARK                            x       y       z     vdW  Elec       q    Type
REMARK                         _______ _______ _______ _____ _____    ______ ____
ROOT
ATOM      1  O   HOH     1      24.689  65.159  13.292  0.00  0.00    +0.000 OA
ENDROOT
TORSDOF 0
REMARK  Name = ../refined-set-2016/3ejq/3ejq_pocket.pdb
REMARK  160 active torsions:
REMARK  status: ('A' for Active; 'I' for Inactive)
REMARK    1  A    between atoms: _1  and  _3
REMARK    2  A    between atoms: _14  and  _17
REMARK    3  A    between atoms: _17  and  _18
REMARK    4  A    between atoms: _25  and  _26
REMARK    5  A    between atoms: _33  and  _34
REMARK    6  A    between atoms: _39  and  _41
REMARK    7  A    between atoms: _41  and  _42
REMARK    8  A    between atoms: _44  and  _46
REMARK    9  A    between atoms: _46  and  _47
REMARK   10  A    between atoms: _46  and  _49
REMARK   11  A    between atoms: _49  and  _50
REMARK   12  A    between atoms: _60  and  _62
REMARK   13  A    between atoms: _62  and  _63
REMARK   14  A    between atoms: _62  and  _65
REMARK   15  A    between atoms: _65  and  _66
REMARK   16  A    between atoms: _69  and  _71
REMARK   17  A    between atoms: _71  and  _72
REMARK   18  A    between atoms: _71  and  _74
REMARK   19  A    between atoms: _74  and  _75
REMARK   20  A    between atoms: _80  and  _81
REMARK   21  A    between atoms: _83  and  _85
REMARK   22  A    between atoms: _85  and  _86
REMARK   23  A    between atoms: _85  and  _88
REMARK   24  A    between atoms: _88  and  _89
REMARK   25  A    between atoms: _89  and  _90
REMARK   26  A    between atoms: _93  and  _95
REMARK   27  A    between atoms: _95  and  _96
REMARK   28  A    between atoms: _95  and  _98
REMARK   29  A    between atoms: _98  and  _99
REMARK   30  A    between atoms: _99  and  _100
REMARK   31  A    between atoms: _102  and  _104
REMARK   32  A    between atoms: _104  and  _105
REMARK   33  A    between atoms: _104  and  _107
REMARK   34  A    between atoms: _107  and  _108
REMARK   35  A    between atoms: _111  and  _113
REMARK   36  A    between atoms: _113  and  _114
REMARK   37  A    between atoms: _113  and  _116
REMARK   38  A    between atoms: _116  and  _117
REMARK   39  A    between atoms: _117  and  _119
REMARK   40  A    between atoms: _119  and  ZN_433
REMARK   41  A    between atoms: _121  and  _122
REMARK   42  A    between atoms: _127  and  _129
REMARK   43  A    between atoms: _129  and  _130
REMARK   44  A    between atoms: _129  and  _132
REMARK   45  A    between atoms: _132  and  _133
REMARK   46  A    between atoms: _139  and  _141
REMARK   47  A    between atoms: _141  and  _142
REMARK   48  A    between atoms: _141  and  _144
REMARK   49  A    between atoms: _144  and  _145
REMARK   50  A    between atoms: _145  and  _146
REMARK   51  A    between atoms: _151  and  _153
REMARK   52  A    between atoms: _153  and  _154
REMARK   53  A    between atoms: _153  and  _156
REMARK   54  A    between atoms: _156  and  _157
REMARK   55  A    between atoms: _157  and  _158
REMARK   56  A    between atoms: _158  and  _159
REMARK   57  A    between atoms: _168  and  _170
REMARK   58  A    between atoms: _170  and  _171
REMARK   59  A    between atoms: _170  and  _173
REMARK   60  A    between atoms: _173  and  _174
REMARK   61  A    between atoms: _179  and  _180
REMARK   62  A    between atoms: _182  and  _184
REMARK   63  A    between atoms: _184  and  _185
REMARK   64  A    between atoms: _184  and  _187
REMARK   65  A    between atoms: _187  and  _188
REMARK   66  A    between atoms: _190  and  _192
REMARK   67  A    between atoms: _192  and  _193
REMARK   68  A    between atoms: _192  and  _195
REMARK   69  A    between atoms: _195  and  _196
REMARK   70  A    between atoms: _201  and  _202
REMARK   71  A    between atoms: _204  and  _206
REMARK   72  A    between atoms: _206  and  _207
REMARK   73  A    between atoms: _206  and  _209
REMARK   74  A    between atoms: _209  and  _210
REMARK   75  A    between atoms: _213  and  _215
REMARK   76  A    between atoms: _215  and  _216
REMARK   77  A    between atoms: _215  and  _218
REMARK   78  A    between atoms: _218  and  _219
REMARK   79  A    between atoms: _222  and  _224
REMARK   80  A    between atoms: _224  and  _225
REMARK   81  A    between atoms: _224  and  _227
REMARK   82  A    between atoms: _227  and  _228
REMARK   83  A    between atoms: _234  and  _236
REMARK   84  A    between atoms: _236  and  _237
REMARK   85  A    between atoms: _236  and  _239
REMARK   86  A    between atoms: _239  and  _240
REMARK   87  A    between atoms: _245  and  _246
REMARK   88  A    between atoms: _248  and  _250
REMARK   89  A    between atoms: _250  and  _251
REMARK   90  A    between atoms: _250  and  _253
REMARK   91  A    between atoms: _253  and  _254
REMARK   92  A    between atoms: _257  and  _259
REMARK   93  A    between atoms: _259  and  _260
REMARK   94  A    between atoms: _259  and  _262
REMARK   95  A    between atoms: _262  and  _263
REMARK   96  A    between atoms: _263  and  _264
REMARK   97  A    between atoms: _264  and  _265
REMARK   98  A    between atoms: _274  and  _276
REMARK   99  A    between atoms: _276  and  _277
REMARK  100  A    between atoms: _276  and  _279
REMARK  101  A    between atoms: _279  and  _280
REMARK  102  A    between atoms: _290  and  _292
REMARK  103  A    between atoms: _292  and  _293
REMARK  104  A    between atoms: _292  and  _295
REMARK  105  A    between atoms: _295  and  _296
REMARK  106  A    between atoms: _301  and  _303
REMARK  107  A    between atoms: _303  and  _304
REMARK  108  A    between atoms: _303  and  _306
REMARK  109  A    between atoms: _306  and  _307
REMARK  110  A    between atoms: _311  and  ZN_433
REMARK  111  A    between atoms: _312  and  _314
REMARK  112  A    between atoms: _314  and  _315
REMARK  113  A    between atoms: _314  and  _317
REMARK  114  A    between atoms: _317  and  _318
REMARK  115  A    between atoms: _321  and  _323
REMARK  116  A    between atoms: _323  and  _324
REMARK  117  A    between atoms: _326  and  _328
REMARK  118  A    between atoms: _328  and  _329
REMARK  119  A    between atoms: _328  and  _331
REMARK  120  A    between atoms: _331  and  _332
REMARK  121  A    between atoms: _335  and  _337
REMARK  122  A    between atoms: _337  and  _338
REMARK  123  A    between atoms: _340  and  _342
REMARK  124  A    between atoms: _342  and  _343
REMARK  125  A    between atoms: _342  and  _345
REMARK  126  A    between atoms: _345  and  _346
REMARK  127  A    between atoms: _349  and  _351
REMARK  128  A    between atoms: _351  and  _352
REMARK  129  A    between atoms: _355  and  _357
REMARK  130  A    between atoms: _357  and  _358
REMARK  131  A    between atoms: _357  and  _360
REMARK  132  A    between atoms: _360  and  _361
REMARK  133  A    between atoms: _366  and  _367
REMARK  134  A    between atoms: _369  and  _371
REMARK  135  A    between atoms: _371  and  _372
REMARK  136  A    between atoms: _371  and  _374
REMARK  137  A    between atoms: _374  and  _375
REMARK  138  A    between atoms: _378  and  _380
REMARK  139  A    between atoms: _380  and  _381
REMARK  140  A    between atoms: _380  and  _383
REMARK  141  A    between atoms: _383  and  _384
REMARK  142  A    between atoms: _387  and  _389
REMARK  143  A    between atoms: _389  and  _390
REMARK  144  A    between atoms: _389  and  _392
REMARK  145  A    between atoms: _392  and  _393
REMARK  146  A    between atoms: _393  and  _394
REMARK  147  A    between atoms: _397  and  _399
REMARK  148  A    between atoms: _399  and  _400
REMARK  149  A    between atoms: _399  and  _402
REMARK  150  A    between atoms: _402  and  _403
REMARK  151  A    between atoms: _403  and  _404
REMARK  152  A    between atoms: _404  and  _405
REMARK  153  A    between atoms: _414  and  _416
REMARK  154  A    between atoms: _416  and  _417
REMARK  155  A    between atoms: _419  and  _421
REMARK  156  A    between atoms: _421  and  _422
REMARK  157  A    between atoms: _421  and  _424
REMARK  158  A    between atoms: _424  and  _425
REMARK  159  A    between atoms: _428  and  _430
REMARK  160  A    between atoms: _430  and  _431
REMARK                            x       y       z     vdW  Elec       q    Type
REMARK                         _______ _______ _______ _____ _____    ______ ____
ROOT
ATOM      1  O   HOH     1      21.160  65.033  12.334  0.00  0.00    +0.000 OA
ENDROOT
TORSDOF 0
REMARK  Name = ../refined-set-2016/3ejq/3ejq_pocket.pdb
REMARK  160 active torsions:
REMARK  status: ('A' for Active; 'I' for Inactive)
REMARK    1  A    between atoms: _1  and  _3
REMARK    2  A    between atoms: _14  and  _17
REMARK    3  A    between atoms: _17  and  _18
REMARK    4  A    between atoms: _25  and  _26
REMARK    5  A    between atoms: _33  and  _34
REMARK    6  A    between atoms: _39  and  _41
REMARK    7  A    between atoms: _41  and  _42
REMARK    8  A    between atoms: _44  and  _46
REMARK    9  A    between atoms: _46  and  _47
REMARK   10  A    between atoms: _46  and  _49
REMARK   11  A    between atoms: _49  and  _50
REMARK   12  A    between atoms: _60  and  _62
REMARK   13  A    between atoms: _62  and  _63
REMARK   14  A    between atoms: _62  and  _65
REMARK   15  A    between atoms: _65  and  _66
REMARK   16  A    between atoms: _69  and  _71
REMARK   17  A    between atoms: _71  and  _72
REMARK   18  A    between atoms: _71  and  _74
REMARK   19  A    between atoms: _74  and  _75
REMARK   20  A    between atoms: _80  and  _81
REMARK   21  A    between atoms: _83  and  _85
REMARK   22  A    between atoms: _85  and  _86
REMARK   23  A    between atoms: _85  and  _88
REMARK   24  A    between atoms: _88  and  _89
REMARK   25  A    between atoms: _89  and  _90
REMARK   26  A    between atoms: _93  and  _95
REMARK   27  A    between atoms: _95  and  _96
REMARK   28  A    between atoms: _95  and  _98
REMARK   29  A    between atoms: _98  and  _99
REMARK   30  A    between atoms: _99  and  _100
REMARK   31  A    between atoms: _102  and  _104
REMARK   32  A    between atoms: _104  and  _105
REMARK   33  A    between atoms: _104  and  _107
REMARK   34  A    between atoms: _107  and  _108
REMARK   35  A    between atoms: _111  and  _113
REMARK   36  A    between atoms: _113  and  _114
REMARK   37  A    between atoms: _113  and  _116
REMARK   38  A    between atoms: _116  and  _117
REMARK   39  A    between atoms: _117  and  _119
REMARK   40  A    between atoms: _119  and  ZN_433
REMARK   41  A    between atoms: _121  and  _122
REMARK   42  A    between atoms: _127  and  _129
REMARK   43  A    between atoms: _129  and  _130
REMARK   44  A    between atoms: _129  and  _132
REMARK   45  A    between atoms: _132  and  _133
REMARK   46  A    between atoms: _139  and  _141
REMARK   47  A    between atoms: _141  and  _142
REMARK   48  A    between atoms: _141  and  _144
REMARK   49  A    between atoms: _144  and  _145
REMARK   50  A    between atoms: _145  and  _146
REMARK   51  A    between atoms: _151  and  _153
REMARK   52  A    between atoms: _153  and  _154
REMARK   53  A    between atoms: _153  and  _156
REMARK   54  A    between atoms: _156  and  _157
REMARK   55  A    between atoms: _157  and  _158
REMARK   56  A    between atoms: _158  and  _159
REMARK   57  A    between atoms: _168  and  _170
REMARK   58  A    between atoms: _170  and  _171
REMARK   59  A    between atoms: _170  and  _173
REMARK   60  A    between atoms: _173  and  _174
REMARK   61  A    between atoms: _179  and  _180
REMARK   62  A    between atoms: _182  and  _184
REMARK   63  A    between atoms: _184  and  _185
REMARK   64  A    between atoms: _184  and  _187
REMARK   65  A    between atoms: _187  and  _188
REMARK   66  A    between atoms: _190  and  _192
REMARK   67  A    between atoms: _192  and  _193
REMARK   68  A    between atoms: _192  and  _195
REMARK   69  A    between atoms: _195  and  _196
REMARK   70  A    between atoms: _201  and  _202
REMARK   71  A    between atoms: _204  and  _206
REMARK   72  A    between atoms: _206  and  _207
REMARK   73  A    between atoms: _206  and  _209
REMARK   74  A    between atoms: _209  and  _210
REMARK   75  A    between atoms: _213  and  _215
REMARK   76  A    between atoms: _215  and  _216
REMARK   77  A    between atoms: _215  and  _218
REMARK   78  A    between atoms: _218  and  _219
REMARK   79  A    between atoms: _222  and  _224
REMARK   80  A    between atoms: _224  and  _225
REMARK   81  A    between atoms: _224  and  _227
REMARK   82  A    between atoms: _227  and  _228
REMARK   83  A    between atoms: _234  and  _236
REMARK   84  A    between atoms: _236  and  _237
REMARK   85  A    between atoms: _236  and  _239
REMARK   86  A    between atoms: _239  and  _240
REMARK   87  A    between atoms: _245  and  _246
REMARK   88  A    between atoms: _248  and  _250
REMARK   89  A    between atoms: _250  and  _251
REMARK   90  A    between atoms: _250  and  _253
REMARK   91  A    between atoms: _253  and  _254
REMARK   92  A    between atoms: _257  and  _259
REMARK   93  A    between atoms: _259  and  _260
REMARK   94  A    between atoms: _259  and  _262
REMARK   95  A    between atoms: _262  and  _263
REMARK   96  A    between atoms: _263  and  _264
REMARK   97  A    between atoms: _264  and  _265
REMARK   98  A    between atoms: _274  and  _276
REMARK   99  A    between atoms: _276  and  _277
REMARK  100  A    between atoms: _276  and  _279
REMARK  101  A    between atoms: _279  and  _280
REMARK  102  A    between atoms: _290  and  _292
REMARK  103  A    between atoms: _292  and  _293
REMARK  104  A    between atoms: _292  and  _295
REMARK  105  A    between atoms: _295  and  _296
REMARK  106  A    between atoms: _301  and  _303
REMARK  107  A    between atoms: _303  and  _304
REMARK  108  A    between atoms: _303  and  _306
REMARK  109  A    between atoms: _306  and  _307
REMARK  110  A    between atoms: _311  and  ZN_433
REMARK  111  A    between atoms: _312  and  _314
REMARK  112  A    between atoms: _314  and  _315
REMARK  113  A    between atoms: _314  and  _317
REMARK  114  A    between atoms: _317  and  _318
REMARK  115  A    between atoms: _321  and  _323
REMARK  116  A    between atoms: _323  and  _324
REMARK  117  A    between atoms: _326  and  _328
REMARK  118  A    between atoms: _328  and  _329
REMARK  119  A    between atoms: _328  and  _331
REMARK  120  A    between atoms: _331  and  _332
REMARK  121  A    between atoms: _335  and  _337
REMARK  122  A    between atoms: _337  and  _338
REMARK  123  A    between atoms: _340  and  _342
REMARK  124  A    between atoms: _342  and  _343
REMARK  125  A    between atoms: _342  and  _345
REMARK  126  A    between atoms: _345  and  _346
REMARK  127  A    between atoms: _349  and  _351
REMARK  128  A    between atoms: _351  and  _352
REMARK  129  A    between atoms: _355  and  _357
REMARK  130  A    between atoms: _357  and  _358
REMARK  131  A    between atoms: _357  and  _360
REMARK  132  A    between atoms: _360  and  _361
REMARK  133  A    between atoms: _366  and  _367
REMARK  134  A    between atoms: _369  and  _371
REMARK  135  A    between atoms: _371  and  _372
REMARK  136  A    between atoms: _371  and  _374
REMARK  137  A    between atoms: _374  and  _375
REMARK  138  A    between atoms: _378  and  _380
REMARK  139  A    between atoms: _380  and  _381
REMARK  140  A    between atoms: _380  and  _383
REMARK  141  A    between atoms: _383  and  _384
REMARK  142  A    between atoms: _387  and  _389
REMARK  143  A    between atoms: _389  and  _390
REMARK  144  A    between atoms: _389  and  _392
REMARK  145  A    between atoms: _392  and  _393
REMARK  146  A    between atoms: _393  and  _394
REMARK  147  A    between atoms: _397  and  _399
REMARK  148  A    between atoms: _399  and  _400
REMARK  149  A    between atoms: _399  and  _402
REMARK  150  A    between atoms: _402  and  _403
REMARK  151  A    between atoms: _403  and  _404
REMARK  152  A    between atoms: _404  and  _405
REMARK  153  A    between atoms: _414  and  _416
REMARK  154  A    between atoms: _416  and  _417
REMARK  155  A    between atoms: _419  and  _421
REMARK  156  A    between atoms: _421  and  _422
REMARK  157  A    between atoms: _421  and  _424
REMARK  158  A    between atoms: _424  and  _425
REMARK  159  A    between atoms: _428  and  _430
REMARK  160  A    between atoms: _430  and  _431
REMARK                            x       y       z     vdW  Elec       q    Type
REMARK                         _______ _______ _______ _____ _____    ______ ____
ROOT
ATOM      1  O   HOH     1      21.067  63.290  14.698  0.00  0.00    +0.000 OA
ENDROOT
TORSDOF 0
REMARK  Name = ../refined-set-2016/3ejq/3ejq_pocket.pdb
REMARK  160 active torsions:
REMARK  status: ('A' for Active; 'I' for Inactive)
REMARK    1  A    between atoms: _1  and  _3
REMARK    2  A    between atoms: _14  and  _17
REMARK    3  A    between atoms: _17  and  _18
REMARK    4  A    between atoms: _25  and  _26
REMARK    5  A    between atoms: _33  and  _34
REMARK    6  A    between atoms: _39  and  _41
REMARK    7  A    between atoms: _41  and  _42
REMARK    8  A    between atoms: _44  and  _46
REMARK    9  A    between atoms: _46  and  _47
REMARK   10  A    between atoms: _46  and  _49
REMARK   11  A    between atoms: _49  and  _50
REMARK   12  A    between atoms: _60  and  _62
REMARK   13  A    between atoms: _62  and  _63
REMARK   14  A    between atoms: _62  and  _65
REMARK   15  A    between atoms: _65  and  _66
REMARK   16  A    between atoms: _69  and  _71
REMARK   17  A    between atoms: _71  and  _72
REMARK   18  A    between atoms: _71  and  _74
REMARK   19  A    between atoms: _74  and  _75
REMARK   20  A    between atoms: _80  and  _81
REMARK   21  A    between atoms: _83  and  _85
REMARK   22  A    between atoms: _85  and  _86
REMARK   23  A    between atoms: _85  and  _88
REMARK   24  A    between atoms: _88  and  _89
REMARK   25  A    between atoms: _89  and  _90
REMARK   26  A    between atoms: _93  and  _95
REMARK   27  A    between atoms: _95  and  _96
REMARK   28  A    between atoms: _95  and  _98
REMARK   29  A    between atoms: _98  and  _99
REMARK   30  A    between atoms: _99  and  _100
REMARK   31  A    between atoms: _102  and  _104
REMARK   32  A    between atoms: _104  and  _105
REMARK   33  A    between atoms: _104  and  _107
REMARK   34  A    between atoms: _107  and  _108
REMARK   35  A    between atoms: _111  and  _113
REMARK   36  A    between atoms: _113  and  _114
REMARK   37  A    between atoms: _113  and  _116
REMARK   38  A    between atoms: _116  and  _117
REMARK   39  A    between atoms: _117  and  _119
REMARK   40  A    between atoms: _119  and  ZN_433
REMARK   41  A    between atoms: _121  and  _122
REMARK   42  A    between atoms: _127  and  _129
REMARK   43  A    between atoms: _129  and  _130
REMARK   44  A    between atoms: _129  and  _132
REMARK   45  A    between atoms: _132  and  _133
REMARK   46  A    between atoms: _139  and  _141
REMARK   47  A    between atoms: _141  and  _142
REMARK   48  A    between atoms: _141  and  _144
REMARK   49  A    between atoms: _144  and  _145
REMARK   50  A    between atoms: _145  and  _146
REMARK   51  A    between atoms: _151  and  _153
REMARK   52  A    between atoms: _153  and  _154
REMARK   53  A    between atoms: _153  and  _156
REMARK   54  A    between atoms: _156  and  _157
REMARK   55  A    between atoms: _157  and  _158
REMARK   56  A    between atoms: _158  and  _159
REMARK   57  A    between atoms: _168  and  _170
REMARK   58  A    between atoms: _170  and  _171
REMARK   59  A    between atoms: _170  and  _173
REMARK   60  A    between atoms: _173  and  _174
REMARK   61  A    between atoms: _179  and  _180
REMARK   62  A    between atoms: _182  and  _184
REMARK   63  A    between atoms: _184  and  _185
REMARK   64  A    between atoms: _184  and  _187
REMARK   65  A    between atoms: _187  and  _188
REMARK   66  A    between atoms: _190  and  _192
REMARK   67  A    between atoms: _192  and  _193
REMARK   68  A    between atoms: _192  and  _195
REMARK   69  A    between atoms: _195  and  _196
REMARK   70  A    between atoms: _201  and  _202
REMARK   71  A    between atoms: _204  and  _206
REMARK   72  A    between atoms: _206  and  _207
REMARK   73  A    between atoms: _206  and  _209
REMARK   74  A    between atoms: _209  and  _210
REMARK   75  A    between atoms: _213  and  _215
REMARK   76  A    between atoms: _215  and  _216
REMARK   77  A    between atoms: _215  and  _218
REMARK   78  A    between atoms: _218  and  _219
REMARK   79  A    between atoms: _222  and  _224
REMARK   80  A    between atoms: _224  and  _225
REMARK   81  A    between atoms: _224  and  _227
REMARK   82  A    between atoms: _227  and  _228
REMARK   83  A    between atoms: _234  and  _236
REMARK   84  A    between atoms: _236  and  _237
REMARK   85  A    between atoms: _236  and  _239
REMARK   86  A    between atoms: _239  and  _240
REMARK   87  A    between atoms: _245  and  _246
REMARK   88  A    between atoms: _248  and  _250
REMARK   89  A    between atoms: _250  and  _251
REMARK   90  A    between atoms: _250  and  _253
REMARK   91  A    between atoms: _253  and  _254
REMARK   92  A    between atoms: _257  and  _259
REMARK   93  A    between atoms: _259  and  _260
REMARK   94  A    between atoms: _259  and  _262
REMARK   95  A    between atoms: _262  and  _263
REMARK   96  A    between atoms: _263  and  _264
REMARK   97  A    between atoms: _264  and  _265
REMARK   98  A    between atoms: _274  and  _276
REMARK   99  A    between atoms: _276  and  _277
REMARK  100  A    between atoms: _276  and  _279
REMARK  101  A    between atoms: _279  and  _280
REMARK  102  A    between atoms: _290  and  _292
REMARK  103  A    between atoms: _292  and  _293
REMARK  104  A    between atoms: _292  and  _295
REMARK  105  A    between atoms: _295  and  _296
REMARK  106  A    between atoms: _301  and  _303
REMARK  107  A    between atoms: _303  and  _304
REMARK  108  A    between atoms: _303  and  _306
REMARK  109  A    between atoms: _306  and  _307
REMARK  110  A    between atoms: _311  and  ZN_433
REMARK  111  A    between atoms: _312  and  _314
REMARK  112  A    between atoms: _314  and  _315
REMARK  113  A    between atoms: _314  and  _317
REMARK  114  A    between atoms: _317  and  _318
REMARK  115  A    between atoms: _321  and  _323
REMARK  116  A    between atoms: _323  and  _324
REMARK  117  A    between atoms: _326  and  _328
REMARK  118  A    between atoms: _328  and  _329
REMARK  119  A    between atoms: _328  and  _331
REMARK  120  A    between atoms: _331  and  _332
REMARK  121  A    between atoms: _335  and  _337
REMARK  122  A    between atoms: _337  and  _338
REMARK  123  A    between atoms: _340  and  _342
REMARK  124  A    between atoms: _342  and  _343
REMARK  125  A    between atoms: _342  and  _345
REMARK  126  A    between atoms: _345  and  _346
REMARK  127  A    between atoms: _349  and  _351
REMARK  128  A    between atoms: _351  and  _352
REMARK  129  A    between atoms: _355  and  _357
REMARK  130  A    between atoms: _357  and  _358
REMARK  131  A    between atoms: _357  and  _360
REMARK  132  A    between atoms: _360  and  _361
REMARK  133  A    between atoms: _366  and  _367
REMARK  134  A    between atoms: _369  and  _371
REMARK  135  A    between atoms: _371  and  _372
REMARK  136  A    between atoms: _371  and  _374
REMARK  137  A    between atoms: _374  and  _375
REMARK  138  A    between atoms: _378  and  _380
REMARK  139  A    between atoms: _380  and  _381
REMARK  140  A    between atoms: _380  and  _383
REMARK  141  A    between atoms: _383  and  _384
REMARK  142  A    between atoms: _387  and  _389
REMARK  143  A    between atoms: _389  and  _390
REMARK  144  A    between atoms: _389  and  _392
REMARK  145  A    between atoms: _392  and  _393
REMARK  146  A    between atoms: _393  and  _394
REMARK  147  A    between atoms: _397  and  _399
REMARK  148  A    between atoms: _399  and  _400
REMARK  149  A    between atoms: _399  and  _402
REMARK  150  A    between atoms: _402  and  _403
REMARK  151  A    between atoms: _403  and  _404
REMARK  152  A    between atoms: _404  and  _405
REMARK  153  A    between atoms: _414  and  _416
REMARK  154  A    between atoms: _416  and  _417
REMARK  155  A    between atoms: _419  and  _421
REMARK  156  A    between atoms: _421  and  _422
REMARK  157  A    between atoms: _421  and  _424
REMARK  158  A    between atoms: _424  and  _425
REMARK  159  A    between atoms: _428  and  _430
REMARK  160  A    between atoms: _430  and  _431
REMARK                            x       y       z     vdW  Elec       q    Type
REMARK                         _______ _______ _______ _____ _____    ______ ____
ROOT
ATOM      1  O   HOH     1      22.738  62.464  16.384  0.00  0.00    +0.000 OA
ENDROOT
TORSDOF 0
REMARK  Name = ../refined-set-2016/3ejq/3ejq_pocket.pdb
REMARK  160 active torsions:
REMARK  status: ('A' for Active; 'I' for Inactive)
REMARK    1  A    between atoms: _1  and  _3
REMARK    2  A    between atoms: _14  and  _17
REMARK    3  A    between atoms: _17  and  _18
REMARK    4  A    between atoms: _25  and  _26
REMARK    5  A    between atoms: _33  and  _34
REMARK    6  A    between atoms: _39  and  _41
REMARK    7  A    between atoms: _41  and  _42
REMARK    8  A    between atoms: _44  and  _46
REMARK    9  A    between atoms: _46  and  _47
REMARK   10  A    between atoms: _46  and  _49
REMARK   11  A    between atoms: _49  and  _50
REMARK   12  A    between atoms: _60  and  _62
REMARK   13  A    between atoms: _62  and  _63
REMARK   14  A    between atoms: _62  and  _65
REMARK   15  A    between atoms: _65  and  _66
REMARK   16  A    between atoms: _69  and  _71
REMARK   17  A    between atoms: _71  and  _72
REMARK   18  A    between atoms: _71  and  _74
REMARK   19  A    between atoms: _74  and  _75
REMARK   20  A    between atoms: _80  and  _81
REMARK   21  A    between atoms: _83  and  _85
REMARK   22  A    between atoms: _85  and  _86
REMARK   23  A    between atoms: _85  and  _88
REMARK   24  A    between atoms: _88  and  _89
REMARK   25  A    between atoms: _89  and  _90
REMARK   26  A    between atoms: _93  and  _95
REMARK   27  A    between atoms: _95  and  _96
REMARK   28  A    between atoms: _95  and  _98
REMARK   29  A    between atoms: _98  and  _99
REMARK   30  A    between atoms: _99  and  _100
REMARK   31  A    between atoms: _102  and  _104
REMARK   32  A    between atoms: _104  and  _105
REMARK   33  A    between atoms: _104  and  _107
REMARK   34  A    between atoms: _107  and  _108
REMARK   35  A    between atoms: _111  and  _113
REMARK   36  A    between atoms: _113  and  _114
REMARK   37  A    between atoms: _113  and  _116
REMARK   38  A    between atoms: _116  and  _117
REMARK   39  A    between atoms: _117  and  _119
REMARK   40  A    between atoms: _119  and  ZN_433
REMARK   41  A    between atoms: _121  and  _122
REMARK   42  A    between atoms: _127  and  _129
REMARK   43  A    between atoms: _129  and  _130
REMARK   44  A    between atoms: _129  and  _132
REMARK   45  A    between atoms: _132  and  _133
REMARK   46  A    between atoms: _139  and  _141
REMARK   47  A    between atoms: _141  and  _142
REMARK   48  A    between atoms: _141  and  _144
REMARK   49  A    between atoms: _144  and  _145
REMARK   50  A    between atoms: _145  and  _146
REMARK   51  A    between atoms: _151  and  _153
REMARK   52  A    between atoms: _153  and  _154
REMARK   53  A    between atoms: _153  and  _156
REMARK   54  A    between atoms: _156  and  _157
REMARK   55  A    between atoms: _157  and  _158
REMARK   56  A    between atoms: _158  and  _159
REMARK   57  A    between atoms: _168  and  _170
REMARK   58  A    between atoms: _170  and  _171
REMARK   59  A    between atoms: _170  and  _173
REMARK   60  A    between atoms: _173  and  _174
REMARK   61  A    between atoms: _179  and  _180
REMARK   62  A    between atoms: _182  and  _184
REMARK   63  A    between atoms: _184  and  _185
REMARK   64  A    between atoms: _184  and  _187
REMARK   65  A    between atoms: _187  and  _188
REMARK   66  A    between atoms: _190  and  _192
REMARK   67  A    between atoms: _192  and  _193
REMARK   68  A    between atoms: _192  and  _195
REMARK   69  A    between atoms: _195  and  _196
REMARK   70  A    between atoms: _201  and  _202
REMARK   71  A    between atoms: _204  and  _206
REMARK   72  A    between atoms: _206  and  _207
REMARK   73  A    between atoms: _206  and  _209
REMARK   74  A    between atoms: _209  and  _210
REMARK   75  A    between atoms: _213  and  _215
REMARK   76  A    between atoms: _215  and  _216
REMARK   77  A    between atoms: _215  and  _218
REMARK   78  A    between atoms: _218  and  _219
REMARK   79  A    between atoms: _222  and  _224
REMARK   80  A    between atoms: _224  and  _225
REMARK   81  A    between atoms: _224  and  _227
REMARK   82  A    between atoms: _227  and  _228
REMARK   83  A    between atoms: _234  and  _236
REMARK   84  A    between atoms: _236  and  _237
REMARK   85  A    between atoms: _236  and  _239
REMARK   86  A    between atoms: _239  and  _240
REMARK   87  A    between atoms: _245  and  _246
REMARK   88  A    between atoms: _248  and  _250
REMARK   89  A    between atoms: _250  and  _251
REMARK   90  A    between atoms: _250  and  _253
REMARK   91  A    between atoms: _253  and  _254
REMARK   92  A    between atoms: _257  and  _259
REMARK   93  A    between atoms: _259  and  _260
REMARK   94  A    between atoms: _259  and  _262
REMARK   95  A    between atoms: _262  and  _263
REMARK   96  A    between atoms: _263  and  _264
REMARK   97  A    between atoms: _264  and  _265
REMARK   98  A    between atoms: _274  and  _276
REMARK   99  A    between atoms: _276  and  _277
REMARK  100  A    between atoms: _276  and  _279
REMARK  101  A    between atoms: _279  and  _280
REMARK  102  A    between atoms: _290  and  _292
REMARK  103  A    between atoms: _292  and  _293
REMARK  104  A    between atoms: _292  and  _295
REMARK  105  A    between atoms: _295  and  _296
REMARK  106  A    between atoms: _301  and  _303
REMARK  107  A    between atoms: _303  and  _304
REMARK  108  A    between atoms: _303  and  _306
REMARK  109  A    between atoms: _306  and  _307
REMARK  110  A    between atoms: _311  and  ZN_433
REMARK  111  A    between atoms: _312  and  _314
REMARK  112  A    between atoms: _314  and  _315
REMARK  113  A    between atoms: _314  and  _317
REMARK  114  A    between atoms: _317  and  _318
REMARK  115  A    between atoms: _321  and  _323
REMARK  116  A    between atoms: _323  and  _324
REMARK  117  A    between atoms: _326  and  _328
REMARK  118  A    between atoms: _328  and  _329
REMARK  119  A    between atoms: _328  and  _331
REMARK  120  A    between atoms: _331  and  _332
REMARK  121  A    between atoms: _335  and  _337
REMARK  122  A    between atoms: _337  and  _338
REMARK  123  A    between atoms: _340  and  _342
REMARK  124  A    between atoms: _342  and  _343
REMARK  125  A    between atoms: _342  and  _345
REMARK  126  A    between atoms: _345  and  _346
REMARK  127  A    between atoms: _349  and  _351
REMARK  128  A    between atoms: _351  and  _352
REMARK  129  A    between atoms: _355  and  _357
REMARK  130  A    between atoms: _357  and  _358
REMARK  131  A    between atoms: _357  and  _360
REMARK  132  A    between atoms: _360  and  _361
REMARK  133  A    between atoms: _366  and  _367
REMARK  134  A    between atoms: _369  and  _371
REMARK  135  A    between atoms: _371  and  _372
REMARK  136  A    between atoms: _371  and  _374
REMARK  137  A    between atoms: _374  and  _375
REMARK  138  A    between atoms: _378  and  _380
REMARK  139  A    between atoms: _380  and  _381
REMARK  140  A    between atoms: _380  and  _383
REMARK  141  A    between atoms: _383  and  _384
REMARK  142  A    between atoms: _387  and  _389
REMARK  143  A    between atoms: _389  and  _390
REMARK  144  A    between atoms: _389  and  _392
REMARK  145  A    between atoms: _392  and  _393
REMARK  146  A    between atoms: _393  and  _394
REMARK  147  A    between atoms: _397  and  _399
REMARK  148  A    between atoms: _399  and  _400
REMARK  149  A    between atoms: _399  and  _402
REMARK  150  A    between atoms: _402  and  _403
REMARK  151  A    between atoms: _403  and  _404
REMARK  152  A    between atoms: _404  and  _405
REMARK  153  A    between atoms: _414  and  _416
REMARK  154  A    between atoms: _416  and  _417
REMARK  155  A    between atoms: _419  and  _421
REMARK  156  A    between atoms: _421  and  _422
REMARK  157  A    between atoms: _421  and  _424
REMARK  158  A    between atoms: _424  and  _425
REMARK  159  A    between atoms: _428  and  _430
REMARK  160  A    between atoms: _430  and  _431
REMARK                            x       y       z     vdW  Elec       q    Type
REMARK                         _______ _______ _______ _____ _____    ______ ____
ROOT
ATOM      1  O   HOH     1      23.033  64.741  18.530  0.00  0.00    +0.000 OA
ENDROOT
TORSDOF 0
REMARK  Name = ../refined-set-2016/3ejq/3ejq_pocket.pdb
REMARK  160 active torsions:
REMARK  status: ('A' for Active; 'I' for Inactive)
REMARK    1  A    between atoms: _1  and  _3
REMARK    2  A    between atoms: _14  and  _17
REMARK    3  A    between atoms: _17  and  _18
REMARK    4  A    between atoms: _25  and  _26
REMARK    5  A    between atoms: _33  and  _34
REMARK    6  A    between atoms: _39  and  _41
REMARK    7  A    between atoms: _41  and  _42
REMARK    8  A    between atoms: _44  and  _46
REMARK    9  A    between atoms: _46  and  _47
REMARK   10  A    between atoms: _46  and  _49
REMARK   11  A    between atoms: _49  and  _50
REMARK   12  A    between atoms: _60  and  _62
REMARK   13  A    between atoms: _62  and  _63
REMARK   14  A    between atoms: _62  and  _65
REMARK   15  A    between atoms: _65  and  _66
REMARK   16  A    between atoms: _69  and  _71
REMARK   17  A    between atoms: _71  and  _72
REMARK   18  A    between atoms: _71  and  _74
REMARK   19  A    between atoms: _74  and  _75
REMARK   20  A    between atoms: _80  and  _81
REMARK   21  A    between atoms: _83  and  _85
REMARK   22  A    between atoms: _85  and  _86
REMARK   23  A    between atoms: _85  and  _88
REMARK   24  A    between atoms: _88  and  _89
REMARK   25  A    between atoms: _89  and  _90
REMARK   26  A    between atoms: _93  and  _95
REMARK   27  A    between atoms: _95  and  _96
REMARK   28  A    between atoms: _95  and  _98
REMARK   29  A    between atoms: _98  and  _99
REMARK   30  A    between atoms: _99  and  _100
REMARK   31  A    between atoms: _102  and  _104
REMARK   32  A    between atoms: _104  and  _105
REMARK   33  A    between atoms: _104  and  _107
REMARK   34  A    between atoms: _107  and  _108
REMARK   35  A    between atoms: _111  and  _113
REMARK   36  A    between atoms: _113  and  _114
REMARK   37  A    between atoms: _113  and  _116
REMARK   38  A    between atoms: _116  and  _117
REMARK   39  A    between atoms: _117  and  _119
REMARK   40  A    between atoms: _119  and  ZN_433
REMARK   41  A    between atoms: _121  and  _122
REMARK   42  A    between atoms: _127  and  _129
REMARK   43  A    between atoms: _129  and  _130
REMARK   44  A    between atoms: _129  and  _132
REMARK   45  A    between atoms: _132  and  _133
REMARK   46  A    between atoms: _139  and  _141
REMARK   47  A    between atoms: _141  and  _142
REMARK   48  A    between atoms: _141  and  _144
REMARK   49  A    between atoms: _144  and  _145
REMARK   50  A    between atoms: _145  and  _146
REMARK   51  A    between atoms: _151  and  _153
REMARK   52  A    between atoms: _153  and  _154
REMARK   53  A    between atoms: _153  and  _156
REMARK   54  A    between atoms: _156  and  _157
REMARK   55  A    between atoms: _157  and  _158
REMARK   56  A    between atoms: _158  and  _159
REMARK   57  A    between atoms: _168  and  _170
REMARK   58  A    between atoms: _170  and  _171
REMARK   59  A    between atoms: _170  and  _173
REMARK   60  A    between atoms: _173  and  _174
REMARK   61  A    between atoms: _179  and  _180
REMARK   62  A    between atoms: _182  and  _184
REMARK   63  A    between atoms: _184  and  _185
REMARK   64  A    between atoms: _184  and  _187
REMARK   65  A    between atoms: _187  and  _188
REMARK   66  A    between atoms: _190  and  _192
REMARK   67  A    between atoms: _192  and  _193
REMARK   68  A    between atoms: _192  and  _195
REMARK   69  A    between atoms: _195  and  _196
REMARK   70  A    between atoms: _201  and  _202
REMARK   71  A    between atoms: _204  and  _206
REMARK   72  A    between atoms: _206  and  _207
REMARK   73  A    between atoms: _206  and  _209
REMARK   74  A    between atoms: _209  and  _210
REMARK   75  A    between atoms: _213  and  _215
REMARK   76  A    between atoms: _215  and  _216
REMARK   77  A    between atoms: _215  and  _218
REMARK   78  A    between atoms: _218  and  _219
REMARK   79  A    between atoms: _222  and  _224
REMARK   80  A    between atoms: _224  and  _225
REMARK   81  A    between atoms: _224  and  _227
REMARK   82  A    between atoms: _227  and  _228
REMARK   83  A    between atoms: _234  and  _236
REMARK   84  A    between atoms: _236  and  _237
REMARK   85  A    between atoms: _236  and  _239
REMARK   86  A    between atoms: _239  and  _240
REMARK   87  A    between atoms: _245  and  _246
REMARK   88  A    between atoms: _248  and  _250
REMARK   89  A    between atoms: _250  and  _251
REMARK   90  A    between atoms: _250  and  _253
REMARK   91  A    between atoms: _253  and  _254
REMARK   92  A    between atoms: _257  and  _259
REMARK   93  A    between atoms: _259  and  _260
REMARK   94  A    between atoms: _259  and  _262
REMARK   95  A    between atoms: _262  and  _263
REMARK   96  A    between atoms: _263  and  _264
REMARK   97  A    between atoms: _264  and  _265
REMARK   98  A    between atoms: _274  and  _276
REMARK   99  A    between atoms: _276  and  _277
REMARK  100  A    between atoms: _276  and  _279
REMARK  101  A    between atoms: _279  and  _280
REMARK  102  A    between atoms: _290  and  _292
REMARK  103  A    between atoms: _292  and  _293
REMARK  104  A    between atoms: _292  and  _295
REMARK  105  A    between atoms: _295  and  _296
REMARK  106  A    between atoms: _301  and  _303
REMARK  107  A    between atoms: _303  and  _304
REMARK  108  A    between atoms: _303  and  _306
REMARK  109  A    between atoms: _306  and  _307
REMARK  110  A    between atoms: _311  and  ZN_433
REMARK  111  A    between atoms: _312  and  _314
REMARK  112  A    between atoms: _314  and  _315
REMARK  113  A    between atoms: _314  and  _317
REMARK  114  A    between atoms: _317  and  _318
REMARK  115  A    between atoms: _321  and  _323
REMARK  116  A    between atoms: _323  and  _324
REMARK  117  A    between atoms: _326  and  _328
REMARK  118  A    between atoms: _328  and  _329
REMARK  119  A    between atoms: _328  and  _331
REMARK  120  A    between atoms: _331  and  _332
REMARK  121  A    between atoms: _335  and  _337
REMARK  122  A    between atoms: _337  and  _338
REMARK  123  A    between atoms: _340  and  _342
REMARK  124  A    between atoms: _342  and  _343
REMARK  125  A    between atoms: _342  and  _345
REMARK  126  A    between atoms: _345  and  _346
REMARK  127  A    between atoms: _349  and  _351
REMARK  128  A    between atoms: _351  and  _352
REMARK  129  A    between atoms: _355  and  _357
REMARK  130  A    between atoms: _357  and  _358
REMARK  131  A    between atoms: _357  and  _360
REMARK  132  A    between atoms: _360  and  _361
REMARK  133  A    between atoms: _366  and  _367
REMARK  134  A    between atoms: _369  and  _371
REMARK  135  A    between atoms: _371  and  _372
REMARK  136  A    between atoms: _371  and  _374
REMARK  137  A    between atoms: _374  and  _375
REMARK  138  A    between atoms: _378  and  _380
REMARK  139  A    between atoms: _380  and  _381
REMARK  140  A    between atoms: _380  and  _383
REMARK  141  A    between atoms: _383  and  _384
REMARK  142  A    between atoms: _387  and  _389
REMARK  143  A    between atoms: _389  and  _390
REMARK  144  A    between atoms: _389  and  _392
REMARK  145  A    between atoms: _392  and  _393
REMARK  146  A    between atoms: _393  and  _394
REMARK  147  A    between atoms: _397  and  _399
REMARK  148  A    between atoms: _399  and  _400
REMARK  149  A    between atoms: _399  and  _402
REMARK  150  A    between atoms: _402  and  _403
REMARK  151  A    between atoms: _403  and  _404
REMARK  152  A    between atoms: _404  and  _405
REMARK  153  A    between atoms: _414  and  _416
REMARK  154  A    between atoms: _416  and  _417
REMARK  155  A    between atoms: _419  and  _421
REMARK  156  A    between atoms: _421  and  _422
REMARK  157  A    between atoms: _421  and  _424
REMARK  158  A    between atoms: _424  and  _425
REMARK  159  A    between atoms: _428  and  _430
REMARK  160  A    between atoms: _430  and  _431
REMARK                            x       y       z     vdW  Elec       q    Type
REMARK                         _______ _______ _______ _____ _____    ______ ____
ROOT
ATOM      1  O   HOH     1      22.297  70.128  19.081  0.00  0.00    +0.000 OA
ENDROOT
TORSDOF 0
REMARK  Name = ../refined-set-2016/3ejq/3ejq_pocket.pdb
REMARK  160 active torsions:
REMARK  status: ('A' for Active; 'I' for Inactive)
REMARK    1  A    between atoms: _1  and  _3
REMARK    2  A    between atoms: _14  and  _17
REMARK    3  A    between atoms: _17  and  _18
REMARK    4  A    between atoms: _25  and  _26
REMARK    5  A    between atoms: _33  and  _34
REMARK    6  A    between atoms: _39  and  _41
REMARK    7  A    between atoms: _41  and  _42
REMARK    8  A    between atoms: _44  and  _46
REMARK    9  A    between atoms: _46  and  _47
REMARK   10  A    between atoms: _46  and  _49
REMARK   11  A    between atoms: _49  and  _50
REMARK   12  A    between atoms: _60  and  _62
REMARK   13  A    between atoms: _62  and  _63
REMARK   14  A    between atoms: _62  and  _65
REMARK   15  A    between atoms: _65  and  _66
REMARK   16  A    between atoms: _69  and  _71
REMARK   17  A    between atoms: _71  and  _72
REMARK   18  A    between atoms: _71  and  _74
REMARK   19  A    between atoms: _74  and  _75
REMARK   20  A    between atoms: _80  and  _81
REMARK   21  A    between atoms: _83  and  _85
REMARK   22  A    between atoms: _85  and  _86
REMARK   23  A    between atoms: _85  and  _88
REMARK   24  A    between atoms: _88  and  _89
REMARK   25  A    between atoms: _89  and  _90
REMARK   26  A    between atoms: _93  and  _95
REMARK   27  A    between atoms: _95  and  _96
REMARK   28  A    between atoms: _95  and  _98
REMARK   29  A    between atoms: _98  and  _99
REMARK   30  A    between atoms: _99  and  _100
REMARK   31  A    between atoms: _102  and  _104
REMARK   32  A    between atoms: _104  and  _105
REMARK   33  A    between atoms: _104  and  _107
REMARK   34  A    between atoms: _107  and  _108
REMARK   35  A    between atoms: _111  and  _113
REMARK   36  A    between atoms: _113  and  _114
REMARK   37  A    between atoms: _113  and  _116
REMARK   38  A    between atoms: _116  and  _117
REMARK   39  A    between atoms: _117  and  _119
REMARK   40  A    between atoms: _119  and  ZN_433
REMARK   41  A    between atoms: _121  and  _122
REMARK   42  A    between atoms: _127  and  _129
REMARK   43  A    between atoms: _129  and  _130
REMARK   44  A    between atoms: _129  and  _132
REMARK   45  A    between atoms: _132  and  _133
REMARK   46  A    between atoms: _139  and  _141
REMARK   47  A    between atoms: _141  and  _142
REMARK   48  A    between atoms: _141  and  _144
REMARK   49  A    between atoms: _144  and  _145
REMARK   50  A    between atoms: _145  and  _146
REMARK   51  A    between atoms: _151  and  _153
REMARK   52  A    between atoms: _153  and  _154
REMARK   53  A    between atoms: _153  and  _156
REMARK   54  A    between atoms: _156  and  _157
REMARK   55  A    between atoms: _157  and  _158
REMARK   56  A    between atoms: _158  and  _159
REMARK   57  A    between atoms: _168  and  _170
REMARK   58  A    between atoms: _170  and  _171
REMARK   59  A    between atoms: _170  and  _173
REMARK   60  A    between atoms: _173  and  _174
REMARK   61  A    between atoms: _179  and  _180
REMARK   62  A    between atoms: _182  and  _184
REMARK   63  A    between atoms: _184  and  _185
REMARK   64  A    between atoms: _184  and  _187
REMARK   65  A    between atoms: _187  and  _188
REMARK   66  A    between atoms: _190  and  _192
REMARK   67  A    between atoms: _192  and  _193
REMARK   68  A    between atoms: _192  and  _195
REMARK   69  A    between atoms: _195  and  _196
REMARK   70  A    between atoms: _201  and  _202
REMARK   71  A    between atoms: _204  and  _206
REMARK   72  A    between atoms: _206  and  _207
REMARK   73  A    between atoms: _206  and  _209
REMARK   74  A    between atoms: _209  and  _210
REMARK   75  A    between atoms: _213  and  _215
REMARK   76  A    between atoms: _215  and  _216
REMARK   77  A    between atoms: _215  and  _218
REMARK   78  A    between atoms: _218  and  _219
REMARK   79  A    between atoms: _222  and  _224
REMARK   80  A    between atoms: _224  and  _225
REMARK   81  A    between atoms: _224  and  _227
REMARK   82  A    between atoms: _227  and  _228
REMARK   83  A    between atoms: _234  and  _236
REMARK   84  A    between atoms: _236  and  _237
REMARK   85  A    between atoms: _236  and  _239
REMARK   86  A    between atoms: _239  and  _240
REMARK   87  A    between atoms: _245  and  _246
REMARK   88  A    between atoms: _248  and  _250
REMARK   89  A    between atoms: _250  and  _251
REMARK   90  A    between atoms: _250  and  _253
REMARK   91  A    between atoms: _253  and  _254
REMARK   92  A    between atoms: _257  and  _259
REMARK   93  A    between atoms: _259  and  _260
REMARK   94  A    between atoms: _259  and  _262
REMARK   95  A    between atoms: _262  and  _263
REMARK   96  A    between atoms: _263  and  _264
REMARK   97  A    between atoms: _264  and  _265
REMARK   98  A    between atoms: _274  and  _276
REMARK   99  A    between atoms: _276  and  _277
REMARK  100  A    between atoms: _276  and  _279
REMARK  101  A    between atoms: _279  and  _280
REMARK  102  A    between atoms: _290  and  _292
REMARK  103  A    between atoms: _292  and  _293
REMARK  104  A    between atoms: _292  and  _295
REMARK  105  A    between atoms: _295  and  _296
REMARK  106  A    between atoms: _301  and  _303
REMARK  107  A    between atoms: _303  and  _304
REMARK  108  A    between atoms: _303  and  _306
REMARK  109  A    between atoms: _306  and  _307
REMARK  110  A    between atoms: _311  and  ZN_433
REMARK  111  A    between atoms: _312  and  _314
REMARK  112  A    between atoms: _314  and  _315
REMARK  113  A    between atoms: _314  and  _317
REMARK  114  A    between atoms: _317  and  _318
REMARK  115  A    between atoms: _321  and  _323
REMARK  116  A    between atoms: _323  and  _324
REMARK  117  A    between atoms: _326  and  _328
REMARK  118  A    between atoms: _328  and  _329
REMARK  119  A    between atoms: _328  and  _331
REMARK  120  A    between atoms: _331  and  _332
REMARK  121  A    between atoms: _335  and  _337
REMARK  122  A    between atoms: _337  and  _338
REMARK  123  A    between atoms: _340  and  _342
REMARK  124  A    between atoms: _342  and  _343
REMARK  125  A    between atoms: _342  and  _345
REMARK  126  A    between atoms: _345  and  _346
REMARK  127  A    between atoms: _349  and  _351
REMARK  128  A    between atoms: _351  and  _352
REMARK  129  A    between atoms: _355  and  _357
REMARK  130  A    between atoms: _357  and  _358
REMARK  131  A    between atoms: _357  and  _360
REMARK  132  A    between atoms: _360  and  _361
REMARK  133  A    between atoms: _366  and  _367
REMARK  134  A    between atoms: _369  and  _371
REMARK  135  A    between atoms: _371  and  _372
REMARK  136  A    between atoms: _371  and  _374
REMARK  137  A    between atoms: _374  and  _375
REMARK  138  A    between atoms: _378  and  _380
REMARK  139  A    between atoms: _380  and  _381
REMARK  140  A    between atoms: _380  and  _383
REMARK  141  A    between atoms: _383  and  _384
REMARK  142  A    between atoms: _387  and  _389
REMARK  143  A    between atoms: _389  and  _390
REMARK  144  A    between atoms: _389  and  _392
REMARK  145  A    between atoms: _392  and  _393
REMARK  146  A    between atoms: _393  and  _394
REMARK  147  A    between atoms: _397  and  _399
REMARK  148  A    between atoms: _399  and  _400
REMARK  149  A    between atoms: _399  and  _402
REMARK  150  A    between atoms: _402  and  _403
REMARK  151  A    between atoms: _403  and  _404
REMARK  152  A    between atoms: _404  and  _405
REMARK  153  A    between atoms: _414  and  _416
REMARK  154  A    between atoms: _416  and  _417
REMARK  155  A    between atoms: _419  and  _421
REMARK  156  A    between atoms: _421  and  _422
REMARK  157  A    between atoms: _421  and  _424
REMARK  158  A    between atoms: _424  and  _425
REMARK  159  A    between atoms: _428  and  _430
REMARK  160  A    between atoms: _430  and  _431
REMARK                            x       y       z     vdW  Elec       q    Type
REMARK                         _______ _______ _______ _____ _____    ______ ____
ROOT
ATOM      1  O   HOH     1      33.661  68.631  17.097  0.00  0.00    +0.000 OA
ENDROOT
TORSDOF 0
REMARK  Name = ../refined-set-2016/3ejq/3ejq_pocket.pdb
REMARK  160 active torsions:
REMARK  status: ('A' for Active; 'I' for Inactive)
REMARK    1  A    between atoms: _1  and  _3
REMARK    2  A    between atoms: _14  and  _17
REMARK    3  A    between atoms: _17  and  _18
REMARK    4  A    between atoms: _25  and  _26
REMARK    5  A    between atoms: _33  and  _34
REMARK    6  A    between atoms: _39  and  _41
REMARK    7  A    between atoms: _41  and  _42
REMARK    8  A    between atoms: _44  and  _46
REMARK    9  A    between atoms: _46  and  _47
REMARK   10  A    between atoms: _46  and  _49
REMARK   11  A    between atoms: _49  and  _50
REMARK   12  A    between atoms: _60  and  _62
REMARK   13  A    between atoms: _62  and  _63
REMARK   14  A    between atoms: _62  and  _65
REMARK   15  A    between atoms: _65  and  _66
REMARK   16  A    between atoms: _69  and  _71
REMARK   17  A    between atoms: _71  and  _72
REMARK   18  A    between atoms: _71  and  _74
REMARK   19  A    between atoms: _74  and  _75
REMARK   20  A    between atoms: _80  and  _81
REMARK   21  A    between atoms: _83  and  _85
REMARK   22  A    between atoms: _85  and  _86
REMARK   23  A    between atoms: _85  and  _88
REMARK   24  A    between atoms: _88  and  _89
REMARK   25  A    between atoms: _89  and  _90
REMARK   26  A    between atoms: _93  and  _95
REMARK   27  A    between atoms: _95  and  _96
REMARK   28  A    between atoms: _95  and  _98
REMARK   29  A    between atoms: _98  and  _99
REMARK   30  A    between atoms: _99  and  _100
REMARK   31  A    between atoms: _102  and  _104
REMARK   32  A    between atoms: _104  and  _105
REMARK   33  A    between atoms: _104  and  _107
REMARK   34  A    between atoms: _107  and  _108
REMARK   35  A    between atoms: _111  and  _113
REMARK   36  A    between atoms: _113  and  _114
REMARK   37  A    between atoms: _113  and  _116
REMARK   38  A    between atoms: _116  and  _117
REMARK   39  A    between atoms: _117  and  _119
REMARK   40  A    between atoms: _119  and  ZN_433
REMARK   41  A    between atoms: _121  and  _122
REMARK   42  A    between atoms: _127  and  _129
REMARK   43  A    between atoms: _129  and  _130
REMARK   44  A    between atoms: _129  and  _132
REMARK   45  A    between atoms: _132  and  _133
REMARK   46  A    between atoms: _139  and  _141
REMARK   47  A    between atoms: _141  and  _142
REMARK   48  A    between atoms: _141  and  _144
REMARK   49  A    between atoms: _144  and  _145
REMARK   50  A    between atoms: _145  and  _146
REMARK   51  A    between atoms: _151  and  _153
REMARK   52  A    between atoms: _153  and  _154
REMARK   53  A    between atoms: _153  and  _156
REMARK   54  A    between atoms: _156  and  _157
REMARK   55  A    between atoms: _157  and  _158
REMARK   56  A    between atoms: _158  and  _159
REMARK   57  A    between atoms: _168  and  _170
REMARK   58  A    between atoms: _170  and  _171
REMARK   59  A    between atoms: _170  and  _173
REMARK   60  A    between atoms: _173  and  _174
REMARK   61  A    between atoms: _179  and  _180
REMARK   62  A    between atoms: _182  and  _184
REMARK   63  A    between atoms: _184  and  _185
REMARK   64  A    between atoms: _184  and  _187
REMARK   65  A    between atoms: _187  and  _188
REMARK   66  A    between atoms: _190  and  _192
REMARK   67  A    between atoms: _192  and  _193
REMARK   68  A    between atoms: _192  and  _195
REMARK   69  A    between atoms: _195  and  _196
REMARK   70  A    between atoms: _201  and  _202
REMARK   71  A    between atoms: _204  and  _206
REMARK   72  A    between atoms: _206  and  _207
REMARK   73  A    between atoms: _206  and  _209
REMARK   74  A    between atoms: _209  and  _210
REMARK   75  A    between atoms: _213  and  _215
REMARK   76  A    between atoms: _215  and  _216
REMARK   77  A    between atoms: _215  and  _218
REMARK   78  A    between atoms: _218  and  _219
REMARK   79  A    between atoms: _222  and  _224
REMARK   80  A    between atoms: _224  and  _225
REMARK   81  A    between atoms: _224  and  _227
REMARK   82  A    between atoms: _227  and  _228
REMARK   83  A    between atoms: _234  and  _236
REMARK   84  A    between atoms: _236  and  _237
REMARK   85  A    between atoms: _236  and  _239
REMARK   86  A    between atoms: _239  and  _240
REMARK   87  A    between atoms: _245  and  _246
REMARK   88  A    between atoms: _248  and  _250
REMARK   89  A    between atoms: _250  and  _251
REMARK   90  A    between atoms: _250  and  _253
REMARK   91  A    between atoms: _253  and  _254
REMARK   92  A    between atoms: _257  and  _259
REMARK   93  A    between atoms: _259  and  _260
REMARK   94  A    between atoms: _259  and  _262
REMARK   95  A    between atoms: _262  and  _263
REMARK   96  A    between atoms: _263  and  _264
REMARK   97  A    between atoms: _264  and  _265
REMARK   98  A    between atoms: _274  and  _276
REMARK   99  A    between atoms: _276  and  _277
REMARK  100  A    between atoms: _276  and  _279
REMARK  101  A    between atoms: _279  and  _280
REMARK  102  A    between atoms: _290  and  _292
REMARK  103  A    between atoms: _292  and  _293
REMARK  104  A    between atoms: _292  and  _295
REMARK  105  A    between atoms: _295  and  _296
REMARK  106  A    between atoms: _301  and  _303
REMARK  107  A    between atoms: _303  and  _304
REMARK  108  A    between atoms: _303  and  _306
REMARK  109  A    between atoms: _306  and  _307
REMARK  110  A    between atoms: _311  and  ZN_433
REMARK  111  A    between atoms: _312  and  _314
REMARK  112  A    between atoms: _314  and  _315
REMARK  113  A    between atoms: _314  and  _317
REMARK  114  A    between atoms: _317  and  _318
REMARK  115  A    between atoms: _321  and  _323
REMARK  116  A    between atoms: _323  and  _324
REMARK  117  A    between atoms: _326  and  _328
REMARK  118  A    between atoms: _328  and  _329
REMARK  119  A    between atoms: _328  and  _331
REMARK  120  A    between atoms: _331  and  _332
REMARK  121  A    between atoms: _335  and  _337
REMARK  122  A    between atoms: _337  and  _338
REMARK  123  A    between atoms: _340  and  _342
REMARK  124  A    between atoms: _342  and  _343
REMARK  125  A    between atoms: _342  and  _345
REMARK  126  A    between atoms: _345  and  _346
REMARK  127  A    between atoms: _349  and  _351
REMARK  128  A    between atoms: _351  and  _352
REMARK  129  A    between atoms: _355  and  _357
REMARK  130  A    between atoms: _357  and  _358
REMARK  131  A    between atoms: _357  and  _360
REMARK  132  A    between atoms: _360  and  _361
REMARK  133  A    between atoms: _366  and  _367
REMARK  134  A    between atoms: _369  and  _371
REMARK  135  A    between atoms: _371  and  _372
REMARK  136  A    between atoms: _371  and  _374
REMARK  137  A    between atoms: _374  and  _375
REMARK  138  A    between atoms: _378  and  _380
REMARK  139  A    between atoms: _380  and  _381
REMARK  140  A    between atoms: _380  and  _383
REMARK  141  A    between atoms: _383  and  _384
REMARK  142  A    between atoms: _387  and  _389
REMARK  143  A    between atoms: _389  and  _390
REMARK  144  A    between atoms: _389  and  _392
REMARK  145  A    between atoms: _392  and  _393
REMARK  146  A    between atoms: _393  and  _394
REMARK  147  A    between atoms: _397  and  _399
REMARK  148  A    between atoms: _399  and  _400
REMARK  149  A    between atoms: _399  and  _402
REMARK  150  A    between atoms: _402  and  _403
REMARK  151  A    between atoms: _403  and  _404
REMARK  152  A    between atoms: _404  and  _405
REMARK  153  A    between atoms: _414  and  _416
REMARK  154  A    between atoms: _416  and  _417
REMARK  155  A    between atoms: _419  and  _421
REMARK  156  A    between atoms: _421  and  _422
REMARK  157  A    between atoms: _421  and  _424
REMARK  158  A    between atoms: _424  and  _425
REMARK  159  A    between atoms: _428  and  _430
REMARK  160  A    between atoms: _430  and  _431
REMARK                            x       y       z     vdW  Elec       q    Type
REMARK                         _______ _______ _______ _____ _____    ______ ____
ROOT
ATOM      1  O   HOH     1      27.328  59.095   8.839  0.00  0.00    +0.000 OA
ENDROOT
TORSDOF 0
REMARK  Name = ../refined-set-2016/3ejq/3ejq_pocket.pdb
REMARK  160 active torsions:
REMARK  status: ('A' for Active; 'I' for Inactive)
REMARK    1  A    between atoms: _1  and  _3
REMARK    2  A    between atoms: _14  and  _17
REMARK    3  A    between atoms: _17  and  _18
REMARK    4  A    between atoms: _25  and  _26
REMARK    5  A    between atoms: _33  and  _34
REMARK    6  A    between atoms: _39  and  _41
REMARK    7  A    between atoms: _41  and  _42
REMARK    8  A    between atoms: _44  and  _46
REMARK    9  A    between atoms: _46  and  _47
REMARK   10  A    between atoms: _46  and  _49
REMARK   11  A    between atoms: _49  and  _50
REMARK   12  A    between atoms: _60  and  _62
REMARK   13  A    between atoms: _62  and  _63
REMARK   14  A    between atoms: _62  and  _65
REMARK   15  A    between atoms: _65  and  _66
REMARK   16  A    between atoms: _69  and  _71
REMARK   17  A    between atoms: _71  and  _72
REMARK   18  A    between atoms: _71  and  _74
REMARK   19  A    between atoms: _74  and  _75
REMARK   20  A    between atoms: _80  and  _81
REMARK   21  A    between atoms: _83  and  _85
REMARK   22  A    between atoms: _85  and  _86
REMARK   23  A    between atoms: _85  and  _88
REMARK   24  A    between atoms: _88  and  _89
REMARK   25  A    between atoms: _89  and  _90
REMARK   26  A    between atoms: _93  and  _95
REMARK   27  A    between atoms: _95  and  _96
REMARK   28  A    between atoms: _95  and  _98
REMARK   29  A    between atoms: _98  and  _99
REMARK   30  A    between atoms: _99  and  _100
REMARK   31  A    between atoms: _102  and  _104
REMARK   32  A    between atoms: _104  and  _105
REMARK   33  A    between atoms: _104  and  _107
REMARK   34  A    between atoms: _107  and  _108
REMARK   35  A    between atoms: _111  and  _113
REMARK   36  A    between atoms: _113  and  _114
REMARK   37  A    between atoms: _113  and  _116
REMARK   38  A    between atoms: _116  and  _117
REMARK   39  A    between atoms: _117  and  _119
REMARK   40  A    between atoms: _119  and  ZN_433
REMARK   41  A    between atoms: _121  and  _122
REMARK   42  A    between atoms: _127  and  _129
REMARK   43  A    between atoms: _129  and  _130
REMARK   44  A    between atoms: _129  and  _132
REMARK   45  A    between atoms: _132  and  _133
REMARK   46  A    between atoms: _139  and  _141
REMARK   47  A    between atoms: _141  and  _142
REMARK   48  A    between atoms: _141  and  _144
REMARK   49  A    between atoms: _144  and  _145
REMARK   50  A    between atoms: _145  and  _146
REMARK   51  A    between atoms: _151  and  _153
REMARK   52  A    between atoms: _153  and  _154
REMARK   53  A    between atoms: _153  and  _156
REMARK   54  A    between atoms: _156  and  _157
REMARK   55  A    between atoms: _157  and  _158
REMARK   56  A    between atoms: _158  and  _159
REMARK   57  A    between atoms: _168  and  _170
REMARK   58  A    between atoms: _170  and  _171
REMARK   59  A    between atoms: _170  and  _173
REMARK   60  A    between atoms: _173  and  _174
REMARK   61  A    between atoms: _179  and  _180
REMARK   62  A    between atoms: _182  and  _184
REMARK   63  A    between atoms: _184  and  _185
REMARK   64  A    between atoms: _184  and  _187
REMARK   65  A    between atoms: _187  and  _188
REMARK   66  A    between atoms: _190  and  _192
REMARK   67  A    between atoms: _192  and  _193
REMARK   68  A    between atoms: _192  and  _195
REMARK   69  A    between atoms: _195  and  _196
REMARK   70  A    between atoms: _201  and  _202
REMARK   71  A    between atoms: _204  and  _206
REMARK   72  A    between atoms: _206  and  _207
REMARK   73  A    between atoms: _206  and  _209
REMARK   74  A    between atoms: _209  and  _210
REMARK   75  A    between atoms: _213  and  _215
REMARK   76  A    between atoms: _215  and  _216
REMARK   77  A    between atoms: _215  and  _218
REMARK   78  A    between atoms: _218  and  _219
REMARK   79  A    between atoms: _222  and  _224
REMARK   80  A    between atoms: _224  and  _225
REMARK   81  A    between atoms: _224  and  _227
REMARK   82  A    between atoms: _227  and  _228
REMARK   83  A    between atoms: _234  and  _236
REMARK   84  A    between atoms: _236  and  _237
REMARK   85  A    between atoms: _236  and  _239
REMARK   86  A    between atoms: _239  and  _240
REMARK   87  A    between atoms: _245  and  _246
REMARK   88  A    between atoms: _248  and  _250
REMARK   89  A    between atoms: _250  and  _251
REMARK   90  A    between atoms: _250  and  _253
REMARK   91  A    between atoms: _253  and  _254
REMARK   92  A    between atoms: _257  and  _259
REMARK   93  A    between atoms: _259  and  _260
REMARK   94  A    between atoms: _259  and  _262
REMARK   95  A    between atoms: _262  and  _263
REMARK   96  A    between atoms: _263  and  _264
REMARK   97  A    between atoms: _264  and  _265
REMARK   98  A    between atoms: _274  and  _276
REMARK   99  A    between atoms: _276  and  _277
REMARK  100  A    between atoms: _276  and  _279
REMARK  101  A    between atoms: _279  and  _280
REMARK  102  A    between atoms: _290  and  _292
REMARK  103  A    between atoms: _292  and  _293
REMARK  104  A    between atoms: _292  and  _295
REMARK  105  A    between atoms: _295  and  _296
REMARK  106  A    between atoms: _301  and  _303
REMARK  107  A    between atoms: _303  and  _304
REMARK  108  A    between atoms: _303  and  _306
REMARK  109  A    between atoms: _306  and  _307
REMARK  110  A    between atoms: _311  and  ZN_433
REMARK  111  A    between atoms: _312  and  _314
REMARK  112  A    between atoms: _314  and  _315
REMARK  113  A    between atoms: _314  and  _317
REMARK  114  A    between atoms: _317  and  _318
REMARK  115  A    between atoms: _321  and  _323
REMARK  116  A    between atoms: _323  and  _324
REMARK  117  A    between atoms: _326  and  _328
REMARK  118  A    between atoms: _328  and  _329
REMARK  119  A    between atoms: _328  and  _331
REMARK  120  A    between atoms: _331  and  _332
REMARK  121  A    between atoms: _335  and  _337
REMARK  122  A    between atoms: _337  and  _338
REMARK  123  A    between atoms: _340  and  _342
REMARK  124  A    between atoms: _342  and  _343
REMARK  125  A    between atoms: _342  and  _345
REMARK  126  A    between atoms: _345  and  _346
REMARK  127  A    between atoms: _349  and  _351
REMARK  128  A    between atoms: _351  and  _352
REMARK  129  A    between atoms: _355  and  _357
REMARK  130  A    between atoms: _357  and  _358
REMARK  131  A    between atoms: _357  and  _360
REMARK  132  A    between atoms: _360  and  _361
REMARK  133  A    between atoms: _366  and  _367
REMARK  134  A    between atoms: _369  and  _371
REMARK  135  A    between atoms: _371  and  _372
REMARK  136  A    between atoms: _371  and  _374
REMARK  137  A    between atoms: _374  and  _375
REMARK  138  A    between atoms: _378  and  _380
REMARK  139  A    between atoms: _380  and  _381
REMARK  140  A    between atoms: _380  and  _383
REMARK  141  A    between atoms: _383  and  _384
REMARK  142  A    between atoms: _387  and  _389
REMARK  143  A    between atoms: _389  and  _390
REMARK  144  A    between atoms: _389  and  _392
REMARK  145  A    between atoms: _392  and  _393
REMARK  146  A    between atoms: _393  and  _394
REMARK  147  A    between atoms: _397  and  _399
REMARK  148  A    between atoms: _399  and  _400
REMARK  149  A    between atoms: _399  and  _402
REMARK  150  A    between atoms: _402  and  _403
REMARK  151  A    between atoms: _403  and  _404
REMARK  152  A    between atoms: _404  and  _405
REMARK  153  A    between atoms: _414  and  _416
REMARK  154  A    between atoms: _416  and  _417
REMARK  155  A    between atoms: _419  and  _421
REMARK  156  A    between atoms: _421  and  _422
REMARK  157  A    between atoms: _421  and  _424
REMARK  158  A    between atoms: _424  and  _425
REMARK  159  A    between atoms: _428  and  _430
REMARK  160  A    between atoms: _430  and  _431
REMARK                            x       y       z     vdW  Elec       q    Type
REMARK                         _______ _______ _______ _____ _____    ______ ____
ROOT
ATOM      1  O   HOH     1      23.900  57.989   6.471  0.00  0.00    +0.000 OA
ENDROOT
TORSDOF 0
REMARK  Name = ../refined-set-2016/3ejq/3ejq_pocket.pdb
REMARK  160 active torsions:
REMARK  status: ('A' for Active; 'I' for Inactive)
REMARK    1  A    between atoms: _1  and  _3
REMARK    2  A    between atoms: _14  and  _17
REMARK    3  A    between atoms: _17  and  _18
REMARK    4  A    between atoms: _25  and  _26
REMARK    5  A    between atoms: _33  and  _34
REMARK    6  A    between atoms: _39  and  _41
REMARK    7  A    between atoms: _41  and  _42
REMARK    8  A    between atoms: _44  and  _46
REMARK    9  A    between atoms: _46  and  _47
REMARK   10  A    between atoms: _46  and  _49
REMARK   11  A    between atoms: _49  and  _50
REMARK   12  A    between atoms: _60  and  _62
REMARK   13  A    between atoms: _62  and  _63
REMARK   14  A    between atoms: _62  and  _65
REMARK   15  A    between atoms: _65  and  _66
REMARK   16  A    between atoms: _69  and  _71
REMARK   17  A    between atoms: _71  and  _72
REMARK   18  A    between atoms: _71  and  _74
REMARK   19  A    between atoms: _74  and  _75
REMARK   20  A    between atoms: _80  and  _81
REMARK   21  A    between atoms: _83  and  _85
REMARK   22  A    between atoms: _85  and  _86
REMARK   23  A    between atoms: _85  and  _88
REMARK   24  A    between atoms: _88  and  _89
REMARK   25  A    between atoms: _89  and  _90
REMARK   26  A    between atoms: _93  and  _95
REMARK   27  A    between atoms: _95  and  _96
REMARK   28  A    between atoms: _95  and  _98
REMARK   29  A    between atoms: _98  and  _99
REMARK   30  A    between atoms: _99  and  _100
REMARK   31  A    between atoms: _102  and  _104
REMARK   32  A    between atoms: _104  and  _105
REMARK   33  A    between atoms: _104  and  _107
REMARK   34  A    between atoms: _107  and  _108
REMARK   35  A    between atoms: _111  and  _113
REMARK   36  A    between atoms: _113  and  _114
REMARK   37  A    between atoms: _113  and  _116
REMARK   38  A    between atoms: _116  and  _117
REMARK   39  A    between atoms: _117  and  _119
REMARK   40  A    between atoms: _119  and  ZN_433
REMARK   41  A    between atoms: _121  and  _122
REMARK   42  A    between atoms: _127  and  _129
REMARK   43  A    between atoms: _129  and  _130
REMARK   44  A    between atoms: _129  and  _132
REMARK   45  A    between atoms: _132  and  _133
REMARK   46  A    between atoms: _139  and  _141
REMARK   47  A    between atoms: _141  and  _142
REMARK   48  A    between atoms: _141  and  _144
REMARK   49  A    between atoms: _144  and  _145
REMARK   50  A    between atoms: _145  and  _146
REMARK   51  A    between atoms: _151  and  _153
REMARK   52  A    between atoms: _153  and  _154
REMARK   53  A    between atoms: _153  and  _156
REMARK   54  A    between atoms: _156  and  _157
REMARK   55  A    between atoms: _157  and  _158
REMARK   56  A    between atoms: _158  and  _159
REMARK   57  A    between atoms: _168  and  _170
REMARK   58  A    between atoms: _170  and  _171
REMARK   59  A    between atoms: _170  and  _173
REMARK   60  A    between atoms: _173  and  _174
REMARK   61  A    between atoms: _179  and  _180
REMARK   62  A    between atoms: _182  and  _184
REMARK   63  A    between atoms: _184  and  _185
REMARK   64  A    between atoms: _184  and  _187
REMARK   65  A    between atoms: _187  and  _188
REMARK   66  A    between atoms: _190  and  _192
REMARK   67  A    between atoms: _192  and  _193
REMARK   68  A    between atoms: _192  and  _195
REMARK   69  A    between atoms: _195  and  _196
REMARK   70  A    between atoms: _201  and  _202
REMARK   71  A    between atoms: _204  and  _206
REMARK   72  A    between atoms: _206  and  _207
REMARK   73  A    between atoms: _206  and  _209
REMARK   74  A    between atoms: _209  and  _210
REMARK   75  A    between atoms: _213  and  _215
REMARK   76  A    between atoms: _215  and  _216
REMARK   77  A    between atoms: _215  and  _218
REMARK   78  A    between atoms: _218  and  _219
REMARK   79  A    between atoms: _222  and  _224
REMARK   80  A    between atoms: _224  and  _225
REMARK   81  A    between atoms: _224  and  _227
REMARK   82  A    between atoms: _227  and  _228
REMARK   83  A    between atoms: _234  and  _236
REMARK   84  A    between atoms: _236  and  _237
REMARK   85  A    between atoms: _236  and  _239
REMARK   86  A    between atoms: _239  and  _240
REMARK   87  A    between atoms: _245  and  _246
REMARK   88  A    between atoms: _248  and  _250
REMARK   89  A    between atoms: _250  and  _251
REMARK   90  A    between atoms: _250  and  _253
REMARK   91  A    between atoms: _253  and  _254
REMARK   92  A    between atoms: _257  and  _259
REMARK   93  A    between atoms: _259  and  _260
REMARK   94  A    between atoms: _259  and  _262
REMARK   95  A    between atoms: _262  and  _263
REMARK   96  A    between atoms: _263  and  _264
REMARK   97  A    between atoms: _264  and  _265
REMARK   98  A    between atoms: _274  and  _276
REMARK   99  A    between atoms: _276  and  _277
REMARK  100  A    between atoms: _276  and  _279
REMARK  101  A    between atoms: _279  and  _280
REMARK  102  A    between atoms: _290  and  _292
REMARK  103  A    between atoms: _292  and  _293
REMARK  104  A    between atoms: _292  and  _295
REMARK  105  A    between atoms: _295  and  _296
REMARK  106  A    between atoms: _301  and  _303
REMARK  107  A    between atoms: _303  and  _304
REMARK  108  A    between atoms: _303  and  _306
REMARK  109  A    between atoms: _306  and  _307
REMARK  110  A    between atoms: _311  and  ZN_433
REMARK  111  A    between atoms: _312  and  _314
REMARK  112  A    between atoms: _314  and  _315
REMARK  113  A    between atoms: _314  and  _317
REMARK  114  A    between atoms: _317  and  _318
REMARK  115  A    between atoms: _321  and  _323
REMARK  116  A    between atoms: _323  and  _324
REMARK  117  A    between atoms: _326  and  _328
REMARK  118  A    between atoms: _328  and  _329
REMARK  119  A    between atoms: _328  and  _331
REMARK  120  A    between atoms: _331  and  _332
REMARK  121  A    between atoms: _335  and  _337
REMARK  122  A    between atoms: _337  and  _338
REMARK  123  A    between atoms: _340  and  _342
REMARK  124  A    between atoms: _342  and  _343
REMARK  125  A    between atoms: _342  and  _345
REMARK  126  A    between atoms: _345  and  _346
REMARK  127  A    between atoms: _349  and  _351
REMARK  128  A    between atoms: _351  and  _352
REMARK  129  A    between atoms: _355  and  _357
REMARK  130  A    between atoms: _357  and  _358
REMARK  131  A    between atoms: _357  and  _360
REMARK  132  A    between atoms: _360  and  _361
REMARK  133  A    between atoms: _366  and  _367
REMARK  134  A    between atoms: _369  and  _371
REMARK  135  A    between atoms: _371  and  _372
REMARK  136  A    between atoms: _371  and  _374
REMARK  137  A    between atoms: _374  and  _375
REMARK  138  A    between atoms: _378  and  _380
REMARK  139  A    between atoms: _380  and  _381
REMARK  140  A    between atoms: _380  and  _383
REMARK  141  A    between atoms: _383  and  _384
REMARK  142  A    between atoms: _387  and  _389
REMARK  143  A    between atoms: _389  and  _390
REMARK  144  A    between atoms: _389  and  _392
REMARK  145  A    between atoms: _392  and  _393
REMARK  146  A    between atoms: _393  and  _394
REMARK  147  A    between atoms: _397  and  _399
REMARK  148  A    between atoms: _399  and  _400
REMARK  149  A    between atoms: _399  and  _402
REMARK  150  A    between atoms: _402  and  _403
REMARK  151  A    between atoms: _403  and  _404
REMARK  152  A    between atoms: _404  and  _405
REMARK  153  A    between atoms: _414  and  _416
REMARK  154  A    between atoms: _416  and  _417
REMARK  155  A    between atoms: _419  and  _421
REMARK  156  A    between atoms: _421  and  _422
REMARK  157  A    between atoms: _421  and  _424
REMARK  158  A    between atoms: _424  and  _425
REMARK  159  A    between atoms: _428  and  _430
REMARK  160  A    between atoms: _430  and  _431
REMARK                            x       y       z     vdW  Elec       q    Type
REMARK                         _______ _______ _______ _____ _____    ______ ____
ROOT
ATOM      1  O   HOH     1      37.882  58.854  11.259  0.00  0.00    +0.000 OA
ENDROOT
TORSDOF 0
REMARK  Name = ../refined-set-2016/3ejq/3ejq_pocket.pdb
REMARK  160 active torsions:
REMARK  status: ('A' for Active; 'I' for Inactive)
REMARK    1  A    between atoms: _1  and  _3
REMARK    2  A    between atoms: _14  and  _17
REMARK    3  A    between atoms: _17  and  _18
REMARK    4  A    between atoms: _25  and  _26
REMARK    5  A    between atoms: _33  and  _34
REMARK    6  A    between atoms: _39  and  _41
REMARK    7  A    between atoms: _41  and  _42
REMARK    8  A    between atoms: _44  and  _46
REMARK    9  A    between atoms: _46  and  _47
REMARK   10  A    between atoms: _46  and  _49
REMARK   11  A    between atoms: _49  and  _50
REMARK   12  A    between atoms: _60  and  _62
REMARK   13  A    between atoms: _62  and  _63
REMARK   14  A    between atoms: _62  and  _65
REMARK   15  A    between atoms: _65  and  _66
REMARK   16  A    between atoms: _69  and  _71
REMARK   17  A    between atoms: _71  and  _72
REMARK   18  A    between atoms: _71  and  _74
REMARK   19  A    between atoms: _74  and  _75
REMARK   20  A    between atoms: _80  and  _81
REMARK   21  A    between atoms: _83  and  _85
REMARK   22  A    between atoms: _85  and  _86
REMARK   23  A    between atoms: _85  and  _88
REMARK   24  A    between atoms: _88  and  _89
REMARK   25  A    between atoms: _89  and  _90
REMARK   26  A    between atoms: _93  and  _95
REMARK   27  A    between atoms: _95  and  _96
REMARK   28  A    between atoms: _95  and  _98
REMARK   29  A    between atoms: _98  and  _99
REMARK   30  A    between atoms: _99  and  _100
REMARK   31  A    between atoms: _102  and  _104
REMARK   32  A    between atoms: _104  and  _105
REMARK   33  A    between atoms: _104  and  _107
REMARK   34  A    between atoms: _107  and  _108
REMARK   35  A    between atoms: _111  and  _113
REMARK   36  A    between atoms: _113  and  _114
REMARK   37  A    between atoms: _113  and  _116
REMARK   38  A    between atoms: _116  and  _117
REMARK   39  A    between atoms: _117  and  _119
REMARK   40  A    between atoms: _119  and  ZN_433
REMARK   41  A    between atoms: _121  and  _122
REMARK   42  A    between atoms: _127  and  _129
REMARK   43  A    between atoms: _129  and  _130
REMARK   44  A    between atoms: _129  and  _132
REMARK   45  A    between atoms: _132  and  _133
REMARK   46  A    between atoms: _139  and  _141
REMARK   47  A    between atoms: _141  and  _142
REMARK   48  A    between atoms: _141  and  _144
REMARK   49  A    between atoms: _144  and  _145
REMARK   50  A    between atoms: _145  and  _146
REMARK   51  A    between atoms: _151  and  _153
REMARK   52  A    between atoms: _153  and  _154
REMARK   53  A    between atoms: _153  and  _156
REMARK   54  A    between atoms: _156  and  _157
REMARK   55  A    between atoms: _157  and  _158
REMARK   56  A    between atoms: _158  and  _159
REMARK   57  A    between atoms: _168  and  _170
REMARK   58  A    between atoms: _170  and  _171
REMARK   59  A    between atoms: _170  and  _173
REMARK   60  A    between atoms: _173  and  _174
REMARK   61  A    between atoms: _179  and  _180
REMARK   62  A    between atoms: _182  and  _184
REMARK   63  A    between atoms: _184  and  _185
REMARK   64  A    between atoms: _184  and  _187
REMARK   65  A    between atoms: _187  and  _188
REMARK   66  A    between atoms: _190  and  _192
REMARK   67  A    between atoms: _192  and  _193
REMARK   68  A    between atoms: _192  and  _195
REMARK   69  A    between atoms: _195  and  _196
REMARK   70  A    between atoms: _201  and  _202
REMARK   71  A    between atoms: _204  and  _206
REMARK   72  A    between atoms: _206  and  _207
REMARK   73  A    between atoms: _206  and  _209
REMARK   74  A    between atoms: _209  and  _210
REMARK   75  A    between atoms: _213  and  _215
REMARK   76  A    between atoms: _215  and  _216
REMARK   77  A    between atoms: _215  and  _218
REMARK   78  A    between atoms: _218  and  _219
REMARK   79  A    between atoms: _222  and  _224
REMARK   80  A    between atoms: _224  and  _225
REMARK   81  A    between atoms: _224  and  _227
REMARK   82  A    between atoms: _227  and  _228
REMARK   83  A    between atoms: _234  and  _236
REMARK   84  A    between atoms: _236  and  _237
REMARK   85  A    between atoms: _236  and  _239
REMARK   86  A    between atoms: _239  and  _240
REMARK   87  A    between atoms: _245  and  _246
REMARK   88  A    between atoms: _248  and  _250
REMARK   89  A    between atoms: _250  and  _251
REMARK   90  A    between atoms: _250  and  _253
REMARK   91  A    between atoms: _253  and  _254
REMARK   92  A    between atoms: _257  and  _259
REMARK   93  A    between atoms: _259  and  _260
REMARK   94  A    between atoms: _259  and  _262
REMARK   95  A    between atoms: _262  and  _263
REMARK   96  A    between atoms: _263  and  _264
REMARK   97  A    between atoms: _264  and  _265
REMARK   98  A    between atoms: _274  and  _276
REMARK   99  A    between atoms: _276  and  _277
REMARK  100  A    between atoms: _276  and  _279
REMARK  101  A    between atoms: _279  and  _280
REMARK  102  A    between atoms: _290  and  _292
REMARK  103  A    between atoms: _292  and  _293
REMARK  104  A    between atoms: _292  and  _295
REMARK  105  A    between atoms: _295  and  _296
REMARK  106  A    between atoms: _301  and  _303
REMARK  107  A    between atoms: _303  and  _304
REMARK  108  A    between atoms: _303  and  _306
REMARK  109  A    between atoms: _306  and  _307
REMARK  110  A    between atoms: _311  and  ZN_433
REMARK  111  A    between atoms: _312  and  _314
REMARK  112  A    between atoms: _314  and  _315
REMARK  113  A    between atoms: _314  and  _317
REMARK  114  A    between atoms: _317  and  _318
REMARK  115  A    between atoms: _321  and  _323
REMARK  116  A    between atoms: _323  and  _324
REMARK  117  A    between atoms: _326  and  _328
REMARK  118  A    between atoms: _328  and  _329
REMARK  119  A    between atoms: _328  and  _331
REMARK  120  A    between atoms: _331  and  _332
REMARK  121  A    between atoms: _335  and  _337
REMARK  122  A    between atoms: _337  and  _338
REMARK  123  A    between atoms: _340  and  _342
REMARK  124  A    between atoms: _342  and  _343
REMARK  125  A    between atoms: _342  and  _345
REMARK  126  A    between atoms: _345  and  _346
REMARK  127  A    between atoms: _349  and  _351
REMARK  128  A    between atoms: _351  and  _352
REMARK  129  A    between atoms: _355  and  _357
REMARK  130  A    between atoms: _357  and  _358
REMARK  131  A    between atoms: _357  and  _360
REMARK  132  A    between atoms: _360  and  _361
REMARK  133  A    between atoms: _366  and  _367
REMARK  134  A    between atoms: _369  and  _371
REMARK  135  A    between atoms: _371  and  _372
REMARK  136  A    between atoms: _371  and  _374
REMARK  137  A    between atoms: _374  and  _375
REMARK  138  A    between atoms: _378  and  _380
REMARK  139  A    between atoms: _380  and  _381
REMARK  140  A    between atoms: _380  and  _383
REMARK  141  A    between atoms: _383  and  _384
REMARK  142  A    between atoms: _387  and  _389
REMARK  143  A    between atoms: _389  and  _390
REMARK  144  A    between atoms: _389  and  _392
REMARK  145  A    between atoms: _392  and  _393
REMARK  146  A    between atoms: _393  and  _394
REMARK  147  A    between atoms: _397  and  _399
REMARK  148  A    between atoms: _399  and  _400
REMARK  149  A    between atoms: _399  and  _402
REMARK  150  A    between atoms: _402  and  _403
REMARK  151  A    between atoms: _403  and  _404
REMARK  152  A    between atoms: _404  and  _405
REMARK  153  A    between atoms: _414  and  _416
REMARK  154  A    between atoms: _416  and  _417
REMARK  155  A    between atoms: _419  and  _421
REMARK  156  A    between atoms: _421  and  _422
REMARK  157  A    between atoms: _421  and  _424
REMARK  158  A    between atoms: _424  and  _425
REMARK  159  A    between atoms: _428  and  _430
REMARK  160  A    between atoms: _430  and  _431
REMARK                            x       y       z     vdW  Elec       q    Type
REMARK                         _______ _______ _______ _____ _____    ______ ____
ROOT
ATOM      1  O   HOH     1      38.773  62.223   8.633  0.00  0.00    +0.000 OA
ENDROOT
TORSDOF 0
REMARK  Name = ../refined-set-2016/3ejq/3ejq_pocket.pdb
REMARK  160 active torsions:
REMARK  status: ('A' for Active; 'I' for Inactive)
REMARK    1  A    between atoms: _1  and  _3
REMARK    2  A    between atoms: _14  and  _17
REMARK    3  A    between atoms: _17  and  _18
REMARK    4  A    between atoms: _25  and  _26
REMARK    5  A    between atoms: _33  and  _34
REMARK    6  A    between atoms: _39  and  _41
REMARK    7  A    between atoms: _41  and  _42
REMARK    8  A    between atoms: _44  and  _46
REMARK    9  A    between atoms: _46  and  _47
REMARK   10  A    between atoms: _46  and  _49
REMARK   11  A    between atoms: _49  and  _50
REMARK   12  A    between atoms: _60  and  _62
REMARK   13  A    between atoms: _62  and  _63
REMARK   14  A    between atoms: _62  and  _65
REMARK   15  A    between atoms: _65  and  _66
REMARK   16  A    between atoms: _69  and  _71
REMARK   17  A    between atoms: _71  and  _72
REMARK   18  A    between atoms: _71  and  _74
REMARK   19  A    between atoms: _74  and  _75
REMARK   20  A    between atoms: _80  and  _81
REMARK   21  A    between atoms: _83  and  _85
REMARK   22  A    between atoms: _85  and  _86
REMARK   23  A    between atoms: _85  and  _88
REMARK   24  A    between atoms: _88  and  _89
REMARK   25  A    between atoms: _89  and  _90
REMARK   26  A    between atoms: _93  and  _95
REMARK   27  A    between atoms: _95  and  _96
REMARK   28  A    between atoms: _95  and  _98
REMARK   29  A    between atoms: _98  and  _99
REMARK   30  A    between atoms: _99  and  _100
REMARK   31  A    between atoms: _102  and  _104
REMARK   32  A    between atoms: _104  and  _105
REMARK   33  A    between atoms: _104  and  _107
REMARK   34  A    between atoms: _107  and  _108
REMARK   35  A    between atoms: _111  and  _113
REMARK   36  A    between atoms: _113  and  _114
REMARK   37  A    between atoms: _113  and  _116
REMARK   38  A    between atoms: _116  and  _117
REMARK   39  A    between atoms: _117  and  _119
REMARK   40  A    between atoms: _119  and  ZN_433
REMARK   41  A    between atoms: _121  and  _122
REMARK   42  A    between atoms: _127  and  _129
REMARK   43  A    between atoms: _129  and  _130
REMARK   44  A    between atoms: _129  and  _132
REMARK   45  A    between atoms: _132  and  _133
REMARK   46  A    between atoms: _139  and  _141
REMARK   47  A    between atoms: _141  and  _142
REMARK   48  A    between atoms: _141  and  _144
REMARK   49  A    between atoms: _144  and  _145
REMARK   50  A    between atoms: _145  and  _146
REMARK   51  A    between atoms: _151  and  _153
REMARK   52  A    between atoms: _153  and  _154
REMARK   53  A    between atoms: _153  and  _156
REMARK   54  A    between atoms: _156  and  _157
REMARK   55  A    between atoms: _157  and  _158
REMARK   56  A    between atoms: _158  and  _159
REMARK   57  A    between atoms: _168  and  _170
REMARK   58  A    between atoms: _170  and  _171
REMARK   59  A    between atoms: _170  and  _173
REMARK   60  A    between atoms: _173  and  _174
REMARK   61  A    between atoms: _179  and  _180
REMARK   62  A    between atoms: _182  and  _184
REMARK   63  A    between atoms: _184  and  _185
REMARK   64  A    between atoms: _184  and  _187
REMARK   65  A    between atoms: _187  and  _188
REMARK   66  A    between atoms: _190  and  _192
REMARK   67  A    between atoms: _192  and  _193
REMARK   68  A    between atoms: _192  and  _195
REMARK   69  A    between atoms: _195  and  _196
REMARK   70  A    between atoms: _201  and  _202
REMARK   71  A    between atoms: _204  and  _206
REMARK   72  A    between atoms: _206  and  _207
REMARK   73  A    between atoms: _206  and  _209
REMARK   74  A    between atoms: _209  and  _210
REMARK   75  A    between atoms: _213  and  _215
REMARK   76  A    between atoms: _215  and  _216
REMARK   77  A    between atoms: _215  and  _218
REMARK   78  A    between atoms: _218  and  _219
REMARK   79  A    between atoms: _222  and  _224
REMARK   80  A    between atoms: _224  and  _225
REMARK   81  A    between atoms: _224  and  _227
REMARK   82  A    between atoms: _227  and  _228
REMARK   83  A    between atoms: _234  and  _236
REMARK   84  A    between atoms: _236  and  _237
REMARK   85  A    between atoms: _236  and  _239
REMARK   86  A    between atoms: _239  and  _240
REMARK   87  A    between atoms: _245  and  _246
REMARK   88  A    between atoms: _248  and  _250
REMARK   89  A    between atoms: _250  and  _251
REMARK   90  A    between atoms: _250  and  _253
REMARK   91  A    between atoms: _253  and  _254
REMARK   92  A    between atoms: _257  and  _259
REMARK   93  A    between atoms: _259  and  _260
REMARK   94  A    between atoms: _259  and  _262
REMARK   95  A    between atoms: _262  and  _263
REMARK   96  A    between atoms: _263  and  _264
REMARK   97  A    between atoms: _264  and  _265
REMARK   98  A    between atoms: _274  and  _276
REMARK   99  A    between atoms: _276  and  _277
REMARK  100  A    between atoms: _276  and  _279
REMARK  101  A    between atoms: _279  and  _280
REMARK  102  A    between atoms: _290  and  _292
REMARK  103  A    between atoms: _292  and  _293
REMARK  104  A    between atoms: _292  and  _295
REMARK  105  A    between atoms: _295  and  _296
REMARK  106  A    between atoms: _301  and  _303
REMARK  107  A    between atoms: _303  and  _304
REMARK  108  A    between atoms: _303  and  _306
REMARK  109  A    between atoms: _306  and  _307
REMARK  110  A    between atoms: _311  and  ZN_433
REMARK  111  A    between atoms: _312  and  _314
REMARK  112  A    between atoms: _314  and  _315
REMARK  113  A    between atoms: _314  and  _317
REMARK  114  A    between atoms: _317  and  _318
REMARK  115  A    between atoms: _321  and  _323
REMARK  116  A    between atoms: _323  and  _324
REMARK  117  A    between atoms: _326  and  _328
REMARK  118  A    between atoms: _328  and  _329
REMARK  119  A    between atoms: _328  and  _331
REMARK  120  A    between atoms: _331  and  _332
REMARK  121  A    between atoms: _335  and  _337
REMARK  122  A    between atoms: _337  and  _338
REMARK  123  A    between atoms: _340  and  _342
REMARK  124  A    between atoms: _342  and  _343
REMARK  125  A    between atoms: _342  and  _345
REMARK  126  A    between atoms: _345  and  _346
REMARK  127  A    between atoms: _349  and  _351
REMARK  128  A    between atoms: _351  and  _352
REMARK  129  A    between atoms: _355  and  _357
REMARK  130  A    between atoms: _357  and  _358
REMARK  131  A    between atoms: _357  and  _360
REMARK  132  A    between atoms: _360  and  _361
REMARK  133  A    between atoms: _366  and  _367
REMARK  134  A    between atoms: _369  and  _371
REMARK  135  A    between atoms: _371  and  _372
REMARK  136  A    between atoms: _371  and  _374
REMARK  137  A    between atoms: _374  and  _375
REMARK  138  A    between atoms: _378  and  _380
REMARK  139  A    between atoms: _380  and  _381
REMARK  140  A    between atoms: _380  and  _383
REMARK  141  A    between atoms: _383  and  _384
REMARK  142  A    between atoms: _387  and  _389
REMARK  143  A    between atoms: _389  and  _390
REMARK  144  A    between atoms: _389  and  _392
REMARK  145  A    between atoms: _392  and  _393
REMARK  146  A    between atoms: _393  and  _394
REMARK  147  A    between atoms: _397  and  _399
REMARK  148  A    between atoms: _399  and  _400
REMARK  149  A    between atoms: _399  and  _402
REMARK  150  A    between atoms: _402  and  _403
REMARK  151  A    between atoms: _403  and  _404
REMARK  152  A    between atoms: _404  and  _405
REMARK  153  A    between atoms: _414  and  _416
REMARK  154  A    between atoms: _416  and  _417
REMARK  155  A    between atoms: _419  and  _421
REMARK  156  A    between atoms: _421  and  _422
REMARK  157  A    between atoms: _421  and  _424
REMARK  158  A    between atoms: _424  and  _425
REMARK  159  A    between atoms: _428  and  _430
REMARK  160  A    between atoms: _430  and  _431
REMARK                            x       y       z     vdW  Elec       q    Type
REMARK                         _______ _______ _______ _____ _____    ______ ____
ROOT
ATOM      1  O   HOH     1      40.338  62.702   6.304  0.00  0.00    +0.000 OA
ENDROOT
TORSDOF 0
REMARK  Name = ../refined-set-2016/3ejq/3ejq_pocket.pdb
REMARK  160 active torsions:
REMARK  status: ('A' for Active; 'I' for Inactive)
REMARK    1  A    between atoms: _1  and  _3
REMARK    2  A    between atoms: _14  and  _17
REMARK    3  A    between atoms: _17  and  _18
REMARK    4  A    between atoms: _25  and  _26
REMARK    5  A    between atoms: _33  and  _34
REMARK    6  A    between atoms: _39  and  _41
REMARK    7  A    between atoms: _41  and  _42
REMARK    8  A    between atoms: _44  and  _46
REMARK    9  A    between atoms: _46  and  _47
REMARK   10  A    between atoms: _46  and  _49
REMARK   11  A    between atoms: _49  and  _50
REMARK   12  A    between atoms: _60  and  _62
REMARK   13  A    between atoms: _62  and  _63
REMARK   14  A    between atoms: _62  and  _65
REMARK   15  A    between atoms: _65  and  _66
REMARK   16  A    between atoms: _69  and  _71
REMARK   17  A    between atoms: _71  and  _72
REMARK   18  A    between atoms: _71  and  _74
REMARK   19  A    between atoms: _74  and  _75
REMARK   20  A    between atoms: _80  and  _81
REMARK   21  A    between atoms: _83  and  _85
REMARK   22  A    between atoms: _85  and  _86
REMARK   23  A    between atoms: _85  and  _88
REMARK   24  A    between atoms: _88  and  _89
REMARK   25  A    between atoms: _89  and  _90
REMARK   26  A    between atoms: _93  and  _95
REMARK   27  A    between atoms: _95  and  _96
REMARK   28  A    between atoms: _95  and  _98
REMARK   29  A    between atoms: _98  and  _99
REMARK   30  A    between atoms: _99  and  _100
REMARK   31  A    between atoms: _102  and  _104
REMARK   32  A    between atoms: _104  and  _105
REMARK   33  A    between atoms: _104  and  _107
REMARK   34  A    between atoms: _107  and  _108
REMARK   35  A    between atoms: _111  and  _113
REMARK   36  A    between atoms: _113  and  _114
REMARK   37  A    between atoms: _113  and  _116
REMARK   38  A    between atoms: _116  and  _117
REMARK   39  A    between atoms: _117  and  _119
REMARK   40  A    between atoms: _119  and  ZN_433
REMARK   41  A    between atoms: _121  and  _122
REMARK   42  A    between atoms: _127  and  _129
REMARK   43  A    between atoms: _129  and  _130
REMARK   44  A    between atoms: _129  and  _132
REMARK   45  A    between atoms: _132  and  _133
REMARK   46  A    between atoms: _139  and  _141
REMARK   47  A    between atoms: _141  and  _142
REMARK   48  A    between atoms: _141  and  _144
REMARK   49  A    between atoms: _144  and  _145
REMARK   50  A    between atoms: _145  and  _146
REMARK   51  A    between atoms: _151  and  _153
REMARK   52  A    between atoms: _153  and  _154
REMARK   53  A    between atoms: _153  and  _156
REMARK   54  A    between atoms: _156  and  _157
REMARK   55  A    between atoms: _157  and  _158
REMARK   56  A    between atoms: _158  and  _159
REMARK   57  A    between atoms: _168  and  _170
REMARK   58  A    between atoms: _170  and  _171
REMARK   59  A    between atoms: _170  and  _173
REMARK   60  A    between atoms: _173  and  _174
REMARK   61  A    between atoms: _179  and  _180
REMARK   62  A    between atoms: _182  and  _184
REMARK   63  A    between atoms: _184  and  _185
REMARK   64  A    between atoms: _184  and  _187
REMARK   65  A    between atoms: _187  and  _188
REMARK   66  A    between atoms: _190  and  _192
REMARK   67  A    between atoms: _192  and  _193
REMARK   68  A    between atoms: _192  and  _195
REMARK   69  A    between atoms: _195  and  _196
REMARK   70  A    between atoms: _201  and  _202
REMARK   71  A    between atoms: _204  and  _206
REMARK   72  A    between atoms: _206  and  _207
REMARK   73  A    between atoms: _206  and  _209
REMARK   74  A    between atoms: _209  and  _210
REMARK   75  A    between atoms: _213  and  _215
REMARK   76  A    between atoms: _215  and  _216
REMARK   77  A    between atoms: _215  and  _218
REMARK   78  A    between atoms: _218  and  _219
REMARK   79  A    between atoms: _222  and  _224
REMARK   80  A    between atoms: _224  and  _225
REMARK   81  A    between atoms: _224  and  _227
REMARK   82  A    between atoms: _227  and  _228
REMARK   83  A    between atoms: _234  and  _236
REMARK   84  A    between atoms: _236  and  _237
REMARK   85  A    between atoms: _236  and  _239
REMARK   86  A    between atoms: _239  and  _240
REMARK   87  A    between atoms: _245  and  _246
REMARK   88  A    between atoms: _248  and  _250
REMARK   89  A    between atoms: _250  and  _251
REMARK   90  A    between atoms: _250  and  _253
REMARK   91  A    between atoms: _253  and  _254
REMARK   92  A    between atoms: _257  and  _259
REMARK   93  A    between atoms: _259  and  _260
REMARK   94  A    between atoms: _259  and  _262
REMARK   95  A    between atoms: _262  and  _263
REMARK   96  A    between atoms: _263  and  _264
REMARK   97  A    between atoms: _264  and  _265
REMARK   98  A    between atoms: _274  and  _276
REMARK   99  A    between atoms: _276  and  _277
REMARK  100  A    between atoms: _276  and  _279
REMARK  101  A    between atoms: _279  and  _280
REMARK  102  A    between atoms: _290  and  _292
REMARK  103  A    between atoms: _292  and  _293
REMARK  104  A    between atoms: _292  and  _295
REMARK  105  A    between atoms: _295  and  _296
REMARK  106  A    between atoms: _301  and  _303
REMARK  107  A    between atoms: _303  and  _304
REMARK  108  A    between atoms: _303  and  _306
REMARK  109  A    between atoms: _306  and  _307
REMARK  110  A    between atoms: _311  and  ZN_433
REMARK  111  A    between atoms: _312  and  _314
REMARK  112  A    between atoms: _314  and  _315
REMARK  113  A    between atoms: _314  and  _317
REMARK  114  A    between atoms: _317  and  _318
REMARK  115  A    between atoms: _321  and  _323
REMARK  116  A    between atoms: _323  and  _324
REMARK  117  A    between atoms: _326  and  _328
REMARK  118  A    between atoms: _328  and  _329
REMARK  119  A    between atoms: _328  and  _331
REMARK  120  A    between atoms: _331  and  _332
REMARK  121  A    between atoms: _335  and  _337
REMARK  122  A    between atoms: _337  and  _338
REMARK  123  A    between atoms: _340  and  _342
REMARK  124  A    between atoms: _342  and  _343
REMARK  125  A    between atoms: _342  and  _345
REMARK  126  A    between atoms: _345  and  _346
REMARK  127  A    between atoms: _349  and  _351
REMARK  128  A    between atoms: _351  and  _352
REMARK  129  A    between atoms: _355  and  _357
REMARK  130  A    between atoms: _357  and  _358
REMARK  131  A    between atoms: _357  and  _360
REMARK  132  A    between atoms: _360  and  _361
REMARK  133  A    between atoms: _366  and  _367
REMARK  134  A    between atoms: _369  and  _371
REMARK  135  A    between atoms: _371  and  _372
REMARK  136  A    between atoms: _371  and  _374
REMARK  137  A    between atoms: _374  and  _375
REMARK  138  A    between atoms: _378  and  _380
REMARK  139  A    between atoms: _380  and  _381
REMARK  140  A    between atoms: _380  and  _383
REMARK  141  A    between atoms: _383  and  _384
REMARK  142  A    between atoms: _387  and  _389
REMARK  143  A    between atoms: _389  and  _390
REMARK  144  A    between atoms: _389  and  _392
REMARK  145  A    between atoms: _392  and  _393
REMARK  146  A    between atoms: _393  and  _394
REMARK  147  A    between atoms: _397  and  _399
REMARK  148  A    between atoms: _399  and  _400
REMARK  149  A    between atoms: _399  and  _402
REMARK  150  A    between atoms: _402  and  _403
REMARK  151  A    between atoms: _403  and  _404
REMARK  152  A    between atoms: _404  and  _405
REMARK  153  A    between atoms: _414  and  _416
REMARK  154  A    between atoms: _416  and  _417
REMARK  155  A    between atoms: _419  and  _421
REMARK  156  A    between atoms: _421  and  _422
REMARK  157  A    between atoms: _421  and  _424
REMARK  158  A    between atoms: _424  and  _425
REMARK  159  A    between atoms: _428  and  _430
REMARK  160  A    between atoms: _430  and  _431
REMARK                            x       y       z     vdW  Elec       q    Type
REMARK                         _______ _______ _______ _____ _____    ______ ____
ROOT
ATOM      1  O   HOH     1      33.059  62.735   0.313  0.00  0.00    +0.000 OA
ENDROOT
TORSDOF 0
