REMARK  Name = ../refined-set-2016/4q7w/4q7w_pocket.pdb
REMARK  133 active torsions:
REMARK  status: ('A' for Active; 'I' for Inactive)
REMARK    1  A    between atoms: _1  and  _3
REMARK    2  A    between atoms: _3  and  _4
REMARK    3  A    between atoms: _3  and  _6
REMARK    4  A    between atoms: _6  and  _7
REMARK    5  A    between atoms: _17  and  _19
REMARK    6  A    between atoms: _19  and  _20
REMARK    7  A    between atoms: _19  and  _22
REMARK    8  A    between atoms: _22  and  _23
REMARK    9  A    between atoms: _28  and  _29
REMARK   10  A    between atoms: _31  and  _33
REMARK   11  A    between atoms: _33  and  _34
REMARK   12  A    between atoms: _33  and  _36
REMARK   13  A    between atoms: _36  and  _37
REMARK   14  A    between atoms: _40  and  _41
REMARK   15  A    between atoms: _46  and  _48
REMARK   16  A    between atoms: _48  and  _49
REMARK   17  A    between atoms: _48  and  _51
REMARK   18  A    between atoms: _51  and  _52
REMARK   19  A    between atoms: _57  and  _59
REMARK   20  A    between atoms: _59  and  _60
REMARK   21  A    between atoms: _59  and  _62
REMARK   22  A    between atoms: _62  and  _63
REMARK   23  A    between atoms: _68  and  _70
REMARK   24  A    between atoms: _70  and  _71
REMARK   25  A    between atoms: _74  and  _76
REMARK   26  A    between atoms: _76  and  _77
REMARK   27  A    between atoms: _76  and  _79
REMARK   28  A    between atoms: _79  and  _80
REMARK   29  A    between atoms: _85  and  _87
REMARK   30  A    between atoms: _87  and  _88
REMARK   31  A    between atoms: _87  and  _90
REMARK   32  A    between atoms: _90  and  _91
REMARK   33  A    between atoms: _94  and  _96
REMARK   34  A    between atoms: _96  and  _97
REMARK   35  A    between atoms: _96  and  _99
REMARK   36  A    between atoms: _99  and  _100
REMARK   37  A    between atoms: _100  and  _101
REMARK   38  A    between atoms: _106  and  _108
REMARK   39  A    between atoms: _119  and  _122
REMARK   40  A    between atoms: _122  and  _123
REMARK   41  A    between atoms: _131  and  _132
REMARK   42  A    between atoms: _140  and  _142
REMARK   43  A    between atoms: _142  and  _143
REMARK   44  A    between atoms: _142  and  _145
REMARK   45  A    between atoms: _145  and  _146
REMARK   46  A    between atoms: _146  and  _147
REMARK   47  A    between atoms: _150  and  _152
REMARK   48  A    between atoms: _152  and  _153
REMARK   49  A    between atoms: _152  and  _155
REMARK   50  A    between atoms: _155  and  _156
REMARK   51  A    between atoms: _161  and  _163
REMARK   52  A    between atoms: _163  and  _164
REMARK   53  A    between atoms: _163  and  _166
REMARK   54  A    between atoms: _166  and  _167
REMARK   55  A    between atoms: _167  and  _168
REMARK   56  A    between atoms: _171  and  _173
REMARK   57  A    between atoms: _173  and  _174
REMARK   58  A    between atoms: _173  and  _176
REMARK   59  A    between atoms: _176  and  _177
REMARK   60  A    between atoms: _178  and  ZN_377
REMARK   61  A    between atoms: _182  and  _184
REMARK   62  A    between atoms: _184  and  _185
REMARK   63  A    between atoms: _184  and  _187
REMARK   64  A    between atoms: _187  and  _188
REMARK   65  A    between atoms: _191  and  _193
REMARK   66  A    between atoms: _193  and  _194
REMARK   67  A    between atoms: _193  and  _196
REMARK   68  A    between atoms: _199  and  _201
REMARK   69  A    between atoms: _201  and  _202
REMARK   70  A    between atoms: _201  and  _204
REMARK   71  A    between atoms: _204  and  _205
REMARK   72  A    between atoms: _210  and  _212
REMARK   73  A    between atoms: _212  and  _213
REMARK   74  A    between atoms: _212  and  _215
REMARK   75  A    between atoms: _215  and  _216
REMARK   76  A    between atoms: _222  and  _224
REMARK   77  A    between atoms: _224  and  _225
REMARK   78  A    between atoms: _224  and  _227
REMARK   79  A    between atoms: _230  and  _232
REMARK   80  A    between atoms: _232  and  _233
REMARK   81  A    between atoms: _232  and  _235
REMARK   82  A    between atoms: _235  and  _236
REMARK   83  A    between atoms: _239  and  _241
REMARK   84  A    between atoms: _241  and  _242
REMARK   85  A    between atoms: _245  and  _247
REMARK   86  A    between atoms: _247  and  _248
REMARK   87  A    between atoms: _247  and  _250
REMARK   88  A    between atoms: _253  and  _255
REMARK   89  A    between atoms: _255  and  _256
REMARK   90  A    between atoms: _255  and  _258
REMARK   91  A    between atoms: _258  and  _259
REMARK   92  A    between atoms: _262  and  _264
REMARK   93  A    between atoms: _264  and  _265
REMARK   94  A    between atoms: _264  and  _267
REMARK   95  A    between atoms: _267  and  _268
REMARK   96  A    between atoms: _270  and  _272
REMARK   97  A    between atoms: _272  and  _273
REMARK   98  A    between atoms: _272  and  _275
REMARK   99  A    between atoms: _275  and  _276
REMARK  100  A    between atoms: _279  and  _281
REMARK  101  A    between atoms: _281  and  _282
REMARK  102  A    between atoms: _281  and  _284
REMARK  103  A    between atoms: _284  and  _285
REMARK  104  A    between atoms: _288  and  _290
REMARK  105  A    between atoms: _290  and  _291
REMARK  106  A    between atoms: _290  and  _293
REMARK  107  A    between atoms: _293  and  _294
REMARK  108  A    between atoms: _298  and  _299
REMARK  109  A    between atoms: _305  and  _306
REMARK  110  A    between atoms: _311  and  _313
REMARK  111  A    between atoms: _313  and  _314
REMARK  112  A    between atoms: _313  and  _316
REMARK  113  A    between atoms: _316  and  _317
REMARK  114  A    between atoms: _320  and  _322
REMARK  115  A    between atoms: _322  and  _323
REMARK  116  A    between atoms: _322  and  _325
REMARK  117  A    between atoms: _325  and  _326
REMARK  118  A    between atoms: _329  and  _331
REMARK  119  A    between atoms: _331  and  _332
REMARK  120  A    between atoms: _331  and  _334
REMARK  121  A    between atoms: _336  and  _338
REMARK  122  A    between atoms: _338  and  _339
REMARK  123  A    between atoms: _338  and  _341
REMARK  124  A    between atoms: _344  and  _346
REMARK  125  A    between atoms: _346  and  _347
REMARK  126  A    between atoms: _346  and  _349
REMARK  127  A    between atoms: _349  and  _350
REMARK  128  A    between atoms: _360  and  _362
REMARK  129  A    between atoms: _362  and  _363
REMARK  130  A    between atoms: _362  and  _365
REMARK  131  A    between atoms: _365  and  _366
REMARK  132  A    between atoms: _366  and  _367
REMARK  133  A    between atoms: _367  and  _368
REMARK                            x       y       z     vdW  Elec       q    Type
REMARK                         _______ _______ _______ _____ _____    ______ ____
ROOT
ATOM      1  CG  TRP A   1      26.567  -0.149  11.970  0.00  0.00    -0.002 A 
ATOM      2  CD2 TRP A   1      25.231  -0.665  11.965  0.00  0.00    +0.013 A 
ATOM      3  CE3 TRP A   1      24.673  -1.925  12.207  0.00  0.00    +0.001 A 
ATOM      4  CZ3 TRP A   1      23.227  -2.055  12.073  0.00  0.00    +0.000 A 
ATOM      5  CH2 TRP A   1      22.448  -0.959  11.762  0.00  0.00    +0.001 A 
ATOM      6  CZ2 TRP A   1      22.989   0.256  11.486  0.00  0.00    +0.017 A 
ATOM      7  CE2 TRP A   1      24.376   0.402  11.604  0.00  0.00    +0.056 A 
ATOM      8  NE1 TRP A   1      25.143   1.523  11.409  0.00  0.00    -0.352 N 
ATOM      9  HE1 TRP A   1      24.780   2.459  11.138  0.00  0.00    +0.166 HD
ATOM     10  CD1 TRP A   1      26.440   1.223  11.623  0.00  0.00    +0.068 A 
ENDROOT
BRANCH   1  11
ATOM     11  CB  TRP A   1      27.857  -0.913  12.311  0.00  0.00    +0.053 C 
BRANCH  11  12
ATOM     12  CA  TRP A   1      28.541  -1.615  11.136  0.00  0.00    +0.137 C 
BRANCH  12  13
ATOM     13  N   TRP A   1      29.182  -0.662  10.229  0.00  0.00    -0.239 NA
ATOM     14  H   TRP A   1      28.877   0.332  10.195  0.00  0.00    +0.142 HD
ENDBRANCH  12  13
BRANCH  12  15
ATOM     15  C   TRP A   1      27.570  -2.458  10.397  0.00  0.00    +0.224 C 
ATOM     16  O   TRP A   1      26.975  -2.038   9.386  0.00  0.00    -0.287 OA
ENDBRANCH  12  15
ENDBRANCH  11  12
ENDBRANCH   1  11
TORSDOF 4
REMARK  Name = ../refined-set-2016/4q7w/4q7w_pocket.pdb
REMARK  133 active torsions:
REMARK  status: ('A' for Active; 'I' for Inactive)
REMARK    1  A    between atoms: _1  and  _3
REMARK    2  A    between atoms: _3  and  _4
REMARK    3  A    between atoms: _3  and  _6
REMARK    4  A    between atoms: _6  and  _7
REMARK    5  A    between atoms: _17  and  _19
REMARK    6  A    between atoms: _19  and  _20
REMARK    7  A    between atoms: _19  and  _22
REMARK    8  A    between atoms: _22  and  _23
REMARK    9  A    between atoms: _28  and  _29
REMARK   10  A    between atoms: _31  and  _33
REMARK   11  A    between atoms: _33  and  _34
REMARK   12  A    between atoms: _33  and  _36
REMARK   13  A    between atoms: _36  and  _37
REMARK   14  A    between atoms: _40  and  _41
REMARK   15  A    between atoms: _46  and  _48
REMARK   16  A    between atoms: _48  and  _49
REMARK   17  A    between atoms: _48  and  _51
REMARK   18  A    between atoms: _51  and  _52
REMARK   19  A    between atoms: _57  and  _59
REMARK   20  A    between atoms: _59  and  _60
REMARK   21  A    between atoms: _59  and  _62
REMARK   22  A    between atoms: _62  and  _63
REMARK   23  A    between atoms: _68  and  _70
REMARK   24  A    between atoms: _70  and  _71
REMARK   25  A    between atoms: _74  and  _76
REMARK   26  A    between atoms: _76  and  _77
REMARK   27  A    between atoms: _76  and  _79
REMARK   28  A    between atoms: _79  and  _80
REMARK   29  A    between atoms: _85  and  _87
REMARK   30  A    between atoms: _87  and  _88
REMARK   31  A    between atoms: _87  and  _90
REMARK   32  A    between atoms: _90  and  _91
REMARK   33  A    between atoms: _94  and  _96
REMARK   34  A    between atoms: _96  and  _97
REMARK   35  A    between atoms: _96  and  _99
REMARK   36  A    between atoms: _99  and  _100
REMARK   37  A    between atoms: _100  and  _101
REMARK   38  A    between atoms: _106  and  _108
REMARK   39  A    between atoms: _119  and  _122
REMARK   40  A    between atoms: _122  and  _123
REMARK   41  A    between atoms: _131  and  _132
REMARK   42  A    between atoms: _140  and  _142
REMARK   43  A    between atoms: _142  and  _143
REMARK   44  A    between atoms: _142  and  _145
REMARK   45  A    between atoms: _145  and  _146
REMARK   46  A    between atoms: _146  and  _147
REMARK   47  A    between atoms: _150  and  _152
REMARK   48  A    between atoms: _152  and  _153
REMARK   49  A    between atoms: _152  and  _155
REMARK   50  A    between atoms: _155  and  _156
REMARK   51  A    between atoms: _161  and  _163
REMARK   52  A    between atoms: _163  and  _164
REMARK   53  A    between atoms: _163  and  _166
REMARK   54  A    between atoms: _166  and  _167
REMARK   55  A    between atoms: _167  and  _168
REMARK   56  A    between atoms: _171  and  _173
REMARK   57  A    between atoms: _173  and  _174
REMARK   58  A    between atoms: _173  and  _176
REMARK   59  A    between atoms: _176  and  _177
REMARK   60  A    between atoms: _178  and  ZN_377
REMARK   61  A    between atoms: _182  and  _184
REMARK   62  A    between atoms: _184  and  _185
REMARK   63  A    between atoms: _184  and  _187
REMARK   64  A    between atoms: _187  and  _188
REMARK   65  A    between atoms: _191  and  _193
REMARK   66  A    between atoms: _193  and  _194
REMARK   67  A    between atoms: _193  and  _196
REMARK   68  A    between atoms: _199  and  _201
REMARK   69  A    between atoms: _201  and  _202
REMARK   70  A    between atoms: _201  and  _204
REMARK   71  A    between atoms: _204  and  _205
REMARK   72  A    between atoms: _210  and  _212
REMARK   73  A    between atoms: _212  and  _213
REMARK   74  A    between atoms: _212  and  _215
REMARK   75  A    between atoms: _215  and  _216
REMARK   76  A    between atoms: _222  and  _224
REMARK   77  A    between atoms: _224  and  _225
REMARK   78  A    between atoms: _224  and  _227
REMARK   79  A    between atoms: _230  and  _232
REMARK   80  A    between atoms: _232  and  _233
REMARK   81  A    between atoms: _232  and  _235
REMARK   82  A    between atoms: _235  and  _236
REMARK   83  A    between atoms: _239  and  _241
REMARK   84  A    between atoms: _241  and  _242
REMARK   85  A    between atoms: _245  and  _247
REMARK   86  A    between atoms: _247  and  _248
REMARK   87  A    between atoms: _247  and  _250
REMARK   88  A    between atoms: _253  and  _255
REMARK   89  A    between atoms: _255  and  _256
REMARK   90  A    between atoms: _255  and  _258
REMARK   91  A    between atoms: _258  and  _259
REMARK   92  A    between atoms: _262  and  _264
REMARK   93  A    between atoms: _264  and  _265
REMARK   94  A    between atoms: _264  and  _267
REMARK   95  A    between atoms: _267  and  _268
REMARK   96  A    between atoms: _270  and  _272
REMARK   97  A    between atoms: _272  and  _273
REMARK   98  A    between atoms: _272  and  _275
REMARK   99  A    between atoms: _275  and  _276
REMARK  100  A    between atoms: _279  and  _281
REMARK  101  A    between atoms: _281  and  _282
REMARK  102  A    between atoms: _281  and  _284
REMARK  103  A    between atoms: _284  and  _285
REMARK  104  A    between atoms: _288  and  _290
REMARK  105  A    between atoms: _290  and  _291
REMARK  106  A    between atoms: _290  and  _293
REMARK  107  A    between atoms: _293  and  _294
REMARK  108  A    between atoms: _298  and  _299
REMARK  109  A    between atoms: _305  and  _306
REMARK  110  A    between atoms: _311  and  _313
REMARK  111  A    between atoms: _313  and  _314
REMARK  112  A    between atoms: _313  and  _316
REMARK  113  A    between atoms: _316  and  _317
REMARK  114  A    between atoms: _320  and  _322
REMARK  115  A    between atoms: _322  and  _323
REMARK  116  A    between atoms: _322  and  _325
REMARK  117  A    between atoms: _325  and  _326
REMARK  118  A    between atoms: _329  and  _331
REMARK  119  A    between atoms: _331  and  _332
REMARK  120  A    between atoms: _331  and  _334
REMARK  121  A    between atoms: _336  and  _338
REMARK  122  A    between atoms: _338  and  _339
REMARK  123  A    between atoms: _338  and  _341
REMARK  124  A    between atoms: _344  and  _346
REMARK  125  A    between atoms: _346  and  _347
REMARK  126  A    between atoms: _346  and  _349
REMARK  127  A    between atoms: _349  and  _350
REMARK  128  A    between atoms: _360  and  _362
REMARK  129  A    between atoms: _362  and  _363
REMARK  130  A    between atoms: _362  and  _365
REMARK  131  A    between atoms: _365  and  _366
REMARK  132  A    between atoms: _366  and  _367
REMARK  133  A    between atoms: _367  and  _368
REMARK                            x       y       z     vdW  Elec       q    Type
REMARK                         _______ _______ _______ _____ _____    ______ ____
ROOT
ATOM      1  CG  TYR A   1      22.965  -7.330  11.854  0.00  0.00    -0.020 A 
ATOM      2  CD2 TYR A   1      22.595  -7.342  13.183  0.00  0.00    -0.001 A 
ATOM      3  CE2 TYR A   1      21.723  -6.311  13.672  0.00  0.00    +0.036 A 
ATOM      4  CZ  TYR A   1      21.238  -5.346  12.841  0.00  0.00    +0.134 A 
ATOM      5  CE1 TYR A   1      21.624  -5.337  11.478  0.00  0.00    +0.036 A 
ATOM      6  CD1 TYR A   1      22.448  -6.373  11.020  0.00  0.00    -0.001 A 
ENDROOT
BRANCH   4   7
ATOM      7  OH  TYR A   1      20.379  -4.361  13.208  0.00  0.00    -0.506 OA
ATOM      8  HH  TYR A   1      20.169  -4.450  14.171  0.00  0.00    +0.292 HD
ENDBRANCH   4   7
BRANCH   1   9
ATOM      9  CB  TYR A   1      23.884  -8.444  11.362  0.00  0.00    +0.051 C 
BRANCH   9  10
ATOM     10  CA  TYR A   1      25.370  -8.035  11.508  0.00  0.00    +0.137 C 
BRANCH  10  11
ATOM     11  N   TYR A   1      25.700  -6.881  10.716  0.00  0.00    -0.239 NA
ATOM     12  H   TYR A   1      25.704  -6.956   9.679  0.00  0.00    +0.142 HD
ENDBRANCH  10  11
BRANCH  10  13
ATOM     13  C   TYR A   1      26.245  -9.280  11.331  0.00  0.00    +0.224 C 
ATOM     14  O   TYR A   1      25.889 -10.391  11.749  0.00  0.00    -0.287 OA
ENDBRANCH  10  13
ENDBRANCH   9  10
ENDBRANCH   1   9
TORSDOF 5
REMARK  Name = ../refined-set-2016/4q7w/4q7w_pocket.pdb
REMARK  133 active torsions:
REMARK  status: ('A' for Active; 'I' for Inactive)
REMARK    1  A    between atoms: _1  and  _3
REMARK    2  A    between atoms: _3  and  _4
REMARK    3  A    between atoms: _3  and  _6
REMARK    4  A    between atoms: _6  and  _7
REMARK    5  A    between atoms: _17  and  _19
REMARK    6  A    between atoms: _19  and  _20
REMARK    7  A    between atoms: _19  and  _22
REMARK    8  A    between atoms: _22  and  _23
REMARK    9  A    between atoms: _28  and  _29
REMARK   10  A    between atoms: _31  and  _33
REMARK   11  A    between atoms: _33  and  _34
REMARK   12  A    between atoms: _33  and  _36
REMARK   13  A    between atoms: _36  and  _37
REMARK   14  A    between atoms: _40  and  _41
REMARK   15  A    between atoms: _46  and  _48
REMARK   16  A    between atoms: _48  and  _49
REMARK   17  A    between atoms: _48  and  _51
REMARK   18  A    between atoms: _51  and  _52
REMARK   19  A    between atoms: _57  and  _59
REMARK   20  A    between atoms: _59  and  _60
REMARK   21  A    between atoms: _59  and  _62
REMARK   22  A    between atoms: _62  and  _63
REMARK   23  A    between atoms: _68  and  _70
REMARK   24  A    between atoms: _70  and  _71
REMARK   25  A    between atoms: _74  and  _76
REMARK   26  A    between atoms: _76  and  _77
REMARK   27  A    between atoms: _76  and  _79
REMARK   28  A    between atoms: _79  and  _80
REMARK   29  A    between atoms: _85  and  _87
REMARK   30  A    between atoms: _87  and  _88
REMARK   31  A    between atoms: _87  and  _90
REMARK   32  A    between atoms: _90  and  _91
REMARK   33  A    between atoms: _94  and  _96
REMARK   34  A    between atoms: _96  and  _97
REMARK   35  A    between atoms: _96  and  _99
REMARK   36  A    between atoms: _99  and  _100
REMARK   37  A    between atoms: _100  and  _101
REMARK   38  A    between atoms: _106  and  _108
REMARK   39  A    between atoms: _119  and  _122
REMARK   40  A    between atoms: _122  and  _123
REMARK   41  A    between atoms: _131  and  _132
REMARK   42  A    between atoms: _140  and  _142
REMARK   43  A    between atoms: _142  and  _143
REMARK   44  A    between atoms: _142  and  _145
REMARK   45  A    between atoms: _145  and  _146
REMARK   46  A    between atoms: _146  and  _147
REMARK   47  A    between atoms: _150  and  _152
REMARK   48  A    between atoms: _152  and  _153
REMARK   49  A    between atoms: _152  and  _155
REMARK   50  A    between atoms: _155  and  _156
REMARK   51  A    between atoms: _161  and  _163
REMARK   52  A    between atoms: _163  and  _164
REMARK   53  A    between atoms: _163  and  _166
REMARK   54  A    between atoms: _166  and  _167
REMARK   55  A    between atoms: _167  and  _168
REMARK   56  A    between atoms: _171  and  _173
REMARK   57  A    between atoms: _173  and  _174
REMARK   58  A    between atoms: _173  and  _176
REMARK   59  A    between atoms: _176  and  _177
REMARK   60  A    between atoms: _178  and  ZN_377
REMARK   61  A    between atoms: _182  and  _184
REMARK   62  A    between atoms: _184  and  _185
REMARK   63  A    between atoms: _184  and  _187
REMARK   64  A    between atoms: _187  and  _188
REMARK   65  A    between atoms: _191  and  _193
REMARK   66  A    between atoms: _193  and  _194
REMARK   67  A    between atoms: _193  and  _196
REMARK   68  A    between atoms: _199  and  _201
REMARK   69  A    between atoms: _201  and  _202
REMARK   70  A    between atoms: _201  and  _204
REMARK   71  A    between atoms: _204  and  _205
REMARK   72  A    between atoms: _210  and  _212
REMARK   73  A    between atoms: _212  and  _213
REMARK   74  A    between atoms: _212  and  _215
REMARK   75  A    between atoms: _215  and  _216
REMARK   76  A    between atoms: _222  and  _224
REMARK   77  A    between atoms: _224  and  _225
REMARK   78  A    between atoms: _224  and  _227
REMARK   79  A    between atoms: _230  and  _232
REMARK   80  A    between atoms: _232  and  _233
REMARK   81  A    between atoms: _232  and  _235
REMARK   82  A    between atoms: _235  and  _236
REMARK   83  A    between atoms: _239  and  _241
REMARK   84  A    between atoms: _241  and  _242
REMARK   85  A    between atoms: _245  and  _247
REMARK   86  A    between atoms: _247  and  _248
REMARK   87  A    between atoms: _247  and  _250
REMARK   88  A    between atoms: _253  and  _255
REMARK   89  A    between atoms: _255  and  _256
REMARK   90  A    between atoms: _255  and  _258
REMARK   91  A    between atoms: _258  and  _259
REMARK   92  A    between atoms: _262  and  _264
REMARK   93  A    between atoms: _264  and  _265
REMARK   94  A    between atoms: _264  and  _267
REMARK   95  A    between atoms: _267  and  _268
REMARK   96  A    between atoms: _270  and  _272
REMARK   97  A    between atoms: _272  and  _273
REMARK   98  A    between atoms: _272  and  _275
REMARK   99  A    between atoms: _275  and  _276
REMARK  100  A    between atoms: _279  and  _281
REMARK  101  A    between atoms: _281  and  _282
REMARK  102  A    between atoms: _281  and  _284
REMARK  103  A    between atoms: _284  and  _285
REMARK  104  A    between atoms: _288  and  _290
REMARK  105  A    between atoms: _290  and  _291
REMARK  106  A    between atoms: _290  and  _293
REMARK  107  A    between atoms: _293  and  _294
REMARK  108  A    between atoms: _298  and  _299
REMARK  109  A    between atoms: _305  and  _306
REMARK  110  A    between atoms: _311  and  _313
REMARK  111  A    between atoms: _313  and  _314
REMARK  112  A    between atoms: _313  and  _316
REMARK  113  A    between atoms: _316  and  _317
REMARK  114  A    between atoms: _320  and  _322
REMARK  115  A    between atoms: _322  and  _323
REMARK  116  A    between atoms: _322  and  _325
REMARK  117  A    between atoms: _325  and  _326
REMARK  118  A    between atoms: _329  and  _331
REMARK  119  A    between atoms: _331  and  _332
REMARK  120  A    between atoms: _331  and  _334
REMARK  121  A    between atoms: _336  and  _338
REMARK  122  A    between atoms: _338  and  _339
REMARK  123  A    between atoms: _338  and  _341
REMARK  124  A    between atoms: _344  and  _346
REMARK  125  A    between atoms: _346  and  _347
REMARK  126  A    between atoms: _346  and  _349
REMARK  127  A    between atoms: _349  and  _350
REMARK  128  A    between atoms: _360  and  _362
REMARK  129  A    between atoms: _362  and  _363
REMARK  130  A    between atoms: _362  and  _365
REMARK  131  A    between atoms: _365  and  _366
REMARK  132  A    between atoms: _366  and  _367
REMARK  133  A    between atoms: _367  and  _368
REMARK                            x       y       z     vdW  Elec       q    Type
REMARK                         _______ _______ _______ _____ _____    ______ ____
ROOT
ATOM      1  C   SER A   1      18.663  -3.338  23.205  0.00  0.00    +0.244 C 
ATOM      2  N   PRO A   2      18.045  -4.479  22.931  0.00  0.00    -0.273 N 
ATOM      3  CA  PRO A   2      16.882  -5.016  23.677  0.00  0.00    +0.140 C 
ATOM      4  CB  PRO A   2      16.349  -6.064  22.714  0.00  0.00    +0.030 C 
ATOM      5  CG  PRO A   2      17.714  -6.690  22.114  0.00  0.00    +0.024 C 
ATOM      6  CD  PRO A   2      18.551  -5.415  21.936  0.00  0.00    +0.094 C 
ATOM      7  O   SER A   1      19.639  -3.000  22.532  0.00  0.00    -0.273 OA
ENDROOT
BRANCH   3   8
ATOM      8  C   PRO A   2      17.238  -5.649  25.008  0.00  0.00    +0.227 C 
ATOM      9  O   PRO A   2      18.465  -5.670  25.346  0.00  0.00    -0.286 OA
ENDBRANCH   3   8
BRANCH   1  10
ATOM     10  CA  SER A   1      18.147  -2.421  24.297  0.00  0.00    +0.175 C 
BRANCH  10  11
ATOM     11  N   SER A   1      19.230  -1.546  24.764  0.00  0.00    -0.236 NA
ATOM     12  H   SER A   1      19.765  -1.005  24.055  0.00  0.00    +0.142 HD
ENDBRANCH  10  11
BRANCH  10  13
ATOM     13  CB  SER A   1      17.040  -1.564  23.710  0.00  0.00    +0.163 C 
BRANCH  13  14
ATOM     14  OG  SER A   1      16.355  -0.861  24.787  0.00  0.00    -0.380 OA
ATOM     15  H   SER A   1      15.967  -1.520  25.416  0.00  0.00    +0.211 HD
ENDBRANCH  13  14
ENDBRANCH  10  13
ENDBRANCH   1  10
TORSDOF 5
REMARK  Name = ../refined-set-2016/4q7w/4q7w_pocket.pdb
REMARK  133 active torsions:
REMARK  status: ('A' for Active; 'I' for Inactive)
REMARK    1  A    between atoms: _1  and  _3
REMARK    2  A    between atoms: _3  and  _4
REMARK    3  A    between atoms: _3  and  _6
REMARK    4  A    between atoms: _6  and  _7
REMARK    5  A    between atoms: _17  and  _19
REMARK    6  A    between atoms: _19  and  _20
REMARK    7  A    between atoms: _19  and  _22
REMARK    8  A    between atoms: _22  and  _23
REMARK    9  A    between atoms: _28  and  _29
REMARK   10  A    between atoms: _31  and  _33
REMARK   11  A    between atoms: _33  and  _34
REMARK   12  A    between atoms: _33  and  _36
REMARK   13  A    between atoms: _36  and  _37
REMARK   14  A    between atoms: _40  and  _41
REMARK   15  A    between atoms: _46  and  _48
REMARK   16  A    between atoms: _48  and  _49
REMARK   17  A    between atoms: _48  and  _51
REMARK   18  A    between atoms: _51  and  _52
REMARK   19  A    between atoms: _57  and  _59
REMARK   20  A    between atoms: _59  and  _60
REMARK   21  A    between atoms: _59  and  _62
REMARK   22  A    between atoms: _62  and  _63
REMARK   23  A    between atoms: _68  and  _70
REMARK   24  A    between atoms: _70  and  _71
REMARK   25  A    between atoms: _74  and  _76
REMARK   26  A    between atoms: _76  and  _77
REMARK   27  A    between atoms: _76  and  _79
REMARK   28  A    between atoms: _79  and  _80
REMARK   29  A    between atoms: _85  and  _87
REMARK   30  A    between atoms: _87  and  _88
REMARK   31  A    between atoms: _87  and  _90
REMARK   32  A    between atoms: _90  and  _91
REMARK   33  A    between atoms: _94  and  _96
REMARK   34  A    between atoms: _96  and  _97
REMARK   35  A    between atoms: _96  and  _99
REMARK   36  A    between atoms: _99  and  _100
REMARK   37  A    between atoms: _100  and  _101
REMARK   38  A    between atoms: _106  and  _108
REMARK   39  A    between atoms: _119  and  _122
REMARK   40  A    between atoms: _122  and  _123
REMARK   41  A    between atoms: _131  and  _132
REMARK   42  A    between atoms: _140  and  _142
REMARK   43  A    between atoms: _142  and  _143
REMARK   44  A    between atoms: _142  and  _145
REMARK   45  A    between atoms: _145  and  _146
REMARK   46  A    between atoms: _146  and  _147
REMARK   47  A    between atoms: _150  and  _152
REMARK   48  A    between atoms: _152  and  _153
REMARK   49  A    between atoms: _152  and  _155
REMARK   50  A    between atoms: _155  and  _156
REMARK   51  A    between atoms: _161  and  _163
REMARK   52  A    between atoms: _163  and  _164
REMARK   53  A    between atoms: _163  and  _166
REMARK   54  A    between atoms: _166  and  _167
REMARK   55  A    between atoms: _167  and  _168
REMARK   56  A    between atoms: _171  and  _173
REMARK   57  A    between atoms: _173  and  _174
REMARK   58  A    between atoms: _173  and  _176
REMARK   59  A    between atoms: _176  and  _177
REMARK   60  A    between atoms: _178  and  ZN_377
REMARK   61  A    between atoms: _182  and  _184
REMARK   62  A    between atoms: _184  and  _185
REMARK   63  A    between atoms: _184  and  _187
REMARK   64  A    between atoms: _187  and  _188
REMARK   65  A    between atoms: _191  and  _193
REMARK   66  A    between atoms: _193  and  _194
REMARK   67  A    between atoms: _193  and  _196
REMARK   68  A    between atoms: _199  and  _201
REMARK   69  A    between atoms: _201  and  _202
REMARK   70  A    between atoms: _201  and  _204
REMARK   71  A    between atoms: _204  and  _205
REMARK   72  A    between atoms: _210  and  _212
REMARK   73  A    between atoms: _212  and  _213
REMARK   74  A    between atoms: _212  and  _215
REMARK   75  A    between atoms: _215  and  _216
REMARK   76  A    between atoms: _222  and  _224
REMARK   77  A    between atoms: _224  and  _225
REMARK   78  A    between atoms: _224  and  _227
REMARK   79  A    between atoms: _230  and  _232
REMARK   80  A    between atoms: _232  and  _233
REMARK   81  A    between atoms: _232  and  _235
REMARK   82  A    between atoms: _235  and  _236
REMARK   83  A    between atoms: _239  and  _241
REMARK   84  A    between atoms: _241  and  _242
REMARK   85  A    between atoms: _245  and  _247
REMARK   86  A    between atoms: _247  and  _248
REMARK   87  A    between atoms: _247  and  _250
REMARK   88  A    between atoms: _253  and  _255
REMARK   89  A    between atoms: _255  and  _256
REMARK   90  A    between atoms: _255  and  _258
REMARK   91  A    between atoms: _258  and  _259
REMARK   92  A    between atoms: _262  and  _264
REMARK   93  A    between atoms: _264  and  _265
REMARK   94  A    between atoms: _264  and  _267
REMARK   95  A    between atoms: _267  and  _268
REMARK   96  A    between atoms: _270  and  _272
REMARK   97  A    between atoms: _272  and  _273
REMARK   98  A    between atoms: _272  and  _275
REMARK   99  A    between atoms: _275  and  _276
REMARK  100  A    between atoms: _279  and  _281
REMARK  101  A    between atoms: _281  and  _282
REMARK  102  A    between atoms: _281  and  _284
REMARK  103  A    between atoms: _284  and  _285
REMARK  104  A    between atoms: _288  and  _290
REMARK  105  A    between atoms: _290  and  _291
REMARK  106  A    between atoms: _290  and  _293
REMARK  107  A    between atoms: _293  and  _294
REMARK  108  A    between atoms: _298  and  _299
REMARK  109  A    between atoms: _305  and  _306
REMARK  110  A    between atoms: _311  and  _313
REMARK  111  A    between atoms: _313  and  _314
REMARK  112  A    between atoms: _313  and  _316
REMARK  113  A    between atoms: _316  and  _317
REMARK  114  A    between atoms: _320  and  _322
REMARK  115  A    between atoms: _322  and  _323
REMARK  116  A    between atoms: _322  and  _325
REMARK  117  A    between atoms: _325  and  _326
REMARK  118  A    between atoms: _329  and  _331
REMARK  119  A    between atoms: _331  and  _332
REMARK  120  A    between atoms: _331  and  _334
REMARK  121  A    between atoms: _336  and  _338
REMARK  122  A    between atoms: _338  and  _339
REMARK  123  A    between atoms: _338  and  _341
REMARK  124  A    between atoms: _344  and  _346
REMARK  125  A    between atoms: _346  and  _347
REMARK  126  A    between atoms: _346  and  _349
REMARK  127  A    between atoms: _349  and  _350
REMARK  128  A    between atoms: _360  and  _362
REMARK  129  A    between atoms: _362  and  _363
REMARK  130  A    between atoms: _362  and  _365
REMARK  131  A    between atoms: _365  and  _366
REMARK  132  A    between atoms: _366  and  _367
REMARK  133  A    between atoms: _367  and  _368
REMARK                            x       y       z     vdW  Elec       q    Type
REMARK                         _______ _______ _______ _____ _____    ______ ____
ROOT
ATOM      1  CB  ASN A   1      18.572   1.699   5.294  0.00  0.00    +0.110 C 
ENDROOT
BRANCH   1   2
ATOM      2  CG  ASN A   1      18.395   0.863   6.539  0.00  0.00    +0.221 C 
ATOM      3  ND2 ASN A   1      18.139   1.529   7.648  0.00  0.00    -0.329 N 
ATOM      4 HD21 ASN A   1      18.064   1.022   8.553  0.00  0.00    +0.145 HD
ATOM      5 HD22 ASN A   1      18.012   2.561   7.617  0.00  0.00    +0.145 HD
ATOM      6  OD1 ASN A   1      18.559  -0.366   6.493  0.00  0.00    -0.275 OA
ENDBRANCH   1   2
BRANCH   1   7
ATOM      7  CA  ASN A   1      18.935   0.846   4.047  0.00  0.00    +0.142 C 
BRANCH   7   8
ATOM      8  N   ASN A   1      17.786   0.006   3.592  0.00  0.00    -0.239 NA
ATOM      9  H   ASN A   1      17.227  -0.517   4.296  0.00  0.00    +0.142 HD
ENDBRANCH   7   8
BRANCH   7  10
ATOM     10  C   ASN A   1      20.183   0.084   4.253  0.00  0.00    +0.225 C 
ATOM     11  O   ASN A   1      21.167   0.583   4.840  0.00  0.00    -0.287 OA
ENDBRANCH   7  10
ENDBRANCH   1   7
TORSDOF 4
REMARK  Name = ../refined-set-2016/4q7w/4q7w_pocket.pdb
REMARK  133 active torsions:
REMARK  status: ('A' for Active; 'I' for Inactive)
REMARK    1  A    between atoms: _1  and  _3
REMARK    2  A    between atoms: _3  and  _4
REMARK    3  A    between atoms: _3  and  _6
REMARK    4  A    between atoms: _6  and  _7
REMARK    5  A    between atoms: _17  and  _19
REMARK    6  A    between atoms: _19  and  _20
REMARK    7  A    between atoms: _19  and  _22
REMARK    8  A    between atoms: _22  and  _23
REMARK    9  A    between atoms: _28  and  _29
REMARK   10  A    between atoms: _31  and  _33
REMARK   11  A    between atoms: _33  and  _34
REMARK   12  A    between atoms: _33  and  _36
REMARK   13  A    between atoms: _36  and  _37
REMARK   14  A    between atoms: _40  and  _41
REMARK   15  A    between atoms: _46  and  _48
REMARK   16  A    between atoms: _48  and  _49
REMARK   17  A    between atoms: _48  and  _51
REMARK   18  A    between atoms: _51  and  _52
REMARK   19  A    between atoms: _57  and  _59
REMARK   20  A    between atoms: _59  and  _60
REMARK   21  A    between atoms: _59  and  _62
REMARK   22  A    between atoms: _62  and  _63
REMARK   23  A    between atoms: _68  and  _70
REMARK   24  A    between atoms: _70  and  _71
REMARK   25  A    between atoms: _74  and  _76
REMARK   26  A    between atoms: _76  and  _77
REMARK   27  A    between atoms: _76  and  _79
REMARK   28  A    between atoms: _79  and  _80
REMARK   29  A    between atoms: _85  and  _87
REMARK   30  A    between atoms: _87  and  _88
REMARK   31  A    between atoms: _87  and  _90
REMARK   32  A    between atoms: _90  and  _91
REMARK   33  A    between atoms: _94  and  _96
REMARK   34  A    between atoms: _96  and  _97
REMARK   35  A    between atoms: _96  and  _99
REMARK   36  A    between atoms: _99  and  _100
REMARK   37  A    between atoms: _100  and  _101
REMARK   38  A    between atoms: _106  and  _108
REMARK   39  A    between atoms: _119  and  _122
REMARK   40  A    between atoms: _122  and  _123
REMARK   41  A    between atoms: _131  and  _132
REMARK   42  A    between atoms: _140  and  _142
REMARK   43  A    between atoms: _142  and  _143
REMARK   44  A    between atoms: _142  and  _145
REMARK   45  A    between atoms: _145  and  _146
REMARK   46  A    between atoms: _146  and  _147
REMARK   47  A    between atoms: _150  and  _152
REMARK   48  A    between atoms: _152  and  _153
REMARK   49  A    between atoms: _152  and  _155
REMARK   50  A    between atoms: _155  and  _156
REMARK   51  A    between atoms: _161  and  _163
REMARK   52  A    between atoms: _163  and  _164
REMARK   53  A    between atoms: _163  and  _166
REMARK   54  A    between atoms: _166  and  _167
REMARK   55  A    between atoms: _167  and  _168
REMARK   56  A    between atoms: _171  and  _173
REMARK   57  A    between atoms: _173  and  _174
REMARK   58  A    between atoms: _173  and  _176
REMARK   59  A    between atoms: _176  and  _177
REMARK   60  A    between atoms: _178  and  ZN_377
REMARK   61  A    between atoms: _182  and  _184
REMARK   62  A    between atoms: _184  and  _185
REMARK   63  A    between atoms: _184  and  _187
REMARK   64  A    between atoms: _187  and  _188
REMARK   65  A    between atoms: _191  and  _193
REMARK   66  A    between atoms: _193  and  _194
REMARK   67  A    between atoms: _193  and  _196
REMARK   68  A    between atoms: _199  and  _201
REMARK   69  A    between atoms: _201  and  _202
REMARK   70  A    between atoms: _201  and  _204
REMARK   71  A    between atoms: _204  and  _205
REMARK   72  A    between atoms: _210  and  _212
REMARK   73  A    between atoms: _212  and  _213
REMARK   74  A    between atoms: _212  and  _215
REMARK   75  A    between atoms: _215  and  _216
REMARK   76  A    between atoms: _222  and  _224
REMARK   77  A    between atoms: _224  and  _225
REMARK   78  A    between atoms: _224  and  _227
REMARK   79  A    between atoms: _230  and  _232
REMARK   80  A    between atoms: _232  and  _233
REMARK   81  A    between atoms: _232  and  _235
REMARK   82  A    between atoms: _235  and  _236
REMARK   83  A    between atoms: _239  and  _241
REMARK   84  A    between atoms: _241  and  _242
REMARK   85  A    between atoms: _245  and  _247
REMARK   86  A    between atoms: _247  and  _248
REMARK   87  A    between atoms: _247  and  _250
REMARK   88  A    between atoms: _253  and  _255
REMARK   89  A    between atoms: _255  and  _256
REMARK   90  A    between atoms: _255  and  _258
REMARK   91  A    between atoms: _258  and  _259
REMARK   92  A    between atoms: _262  and  _264
REMARK   93  A    between atoms: _264  and  _265
REMARK   94  A    between atoms: _264  and  _267
REMARK   95  A    between atoms: _267  and  _268
REMARK   96  A    between atoms: _270  and  _272
REMARK   97  A    between atoms: _272  and  _273
REMARK   98  A    between atoms: _272  and  _275
REMARK   99  A    between atoms: _275  and  _276
REMARK  100  A    between atoms: _279  and  _281
REMARK  101  A    between atoms: _281  and  _282
REMARK  102  A    between atoms: _281  and  _284
REMARK  103  A    between atoms: _284  and  _285
REMARK  104  A    between atoms: _288  and  _290
REMARK  105  A    between atoms: _290  and  _291
REMARK  106  A    between atoms: _290  and  _293
REMARK  107  A    between atoms: _293  and  _294
REMARK  108  A    between atoms: _298  and  _299
REMARK  109  A    between atoms: _305  and  _306
REMARK  110  A    between atoms: _311  and  _313
REMARK  111  A    between atoms: _313  and  _314
REMARK  112  A    between atoms: _313  and  _316
REMARK  113  A    between atoms: _316  and  _317
REMARK  114  A    between atoms: _320  and  _322
REMARK  115  A    between atoms: _322  and  _323
REMARK  116  A    between atoms: _322  and  _325
REMARK  117  A    between atoms: _325  and  _326
REMARK  118  A    between atoms: _329  and  _331
REMARK  119  A    between atoms: _331  and  _332
REMARK  120  A    between atoms: _331  and  _334
REMARK  121  A    between atoms: _336  and  _338
REMARK  122  A    between atoms: _338  and  _339
REMARK  123  A    between atoms: _338  and  _341
REMARK  124  A    between atoms: _344  and  _346
REMARK  125  A    between atoms: _346  and  _347
REMARK  126  A    between atoms: _346  and  _349
REMARK  127  A    between atoms: _349  and  _350
REMARK  128  A    between atoms: _360  and  _362
REMARK  129  A    between atoms: _362  and  _363
REMARK  130  A    between atoms: _362  and  _365
REMARK  131  A    between atoms: _365  and  _366
REMARK  132  A    between atoms: _366  and  _367
REMARK  133  A    between atoms: _367  and  _368
REMARK                            x       y       z     vdW  Elec       q    Type
REMARK                         _______ _______ _______ _____ _____    ______ ____
ROOT
ATOM      1  CA  HIS A   1      20.336  -3.207   7.500  0.00  0.00    +0.151 C 
ENDROOT
BRANCH   1   2
ATOM      2  C   HIS A   1      18.950  -3.800   7.590  0.00  0.00    +0.239 C 
ATOM      3  O   HIS A   1      18.851  -4.948   8.147  0.00  0.00    -0.274 OA
ATOM      4  N   ALA A   2      17.938  -3.121   7.139  0.00  0.00    -0.298 N 
ATOM      5  H   ALA A   2      18.115  -2.198   6.694  0.00  0.00    +0.150 HD
BRANCH   4   6
ATOM      6  CA  ALA A   2      16.541  -3.609   7.233  0.00  0.00    +0.137 C 
ATOM      7  CB  ALA A   2      15.942  -3.276   8.603  0.00  0.00    +0.030 C 
BRANCH   6   8
ATOM      8  C   ALA A   2      15.808  -2.830   6.130  0.00  0.00    +0.227 C 
ATOM      9  O   ALA A   2      16.485  -2.202   5.263  0.00  0.00    -0.286 OA
ENDBRANCH   6   8
ENDBRANCH   4   6
ENDBRANCH   1   2
BRANCH   1  10
ATOM     10  N   HIS A   1      20.449  -2.562   6.173  0.00  0.00    -0.238 NA
ATOM     11  H   HIS A   1      19.720  -1.868   5.910  0.00  0.00    +0.142 HD
ENDBRANCH   1  10
BRANCH   1  12
ATOM     12  CB  HIS A   1      20.564  -2.132   8.630  0.00  0.00    +0.074 C 
BRANCH  12  13
ATOM     13  CG  HIS A   1      21.878  -1.426   8.474  0.00  0.00    +0.082 A 
ATOM     14  CD2 HIS A   1      23.149  -1.920   8.559  0.00  0.00    +0.115 A 
ATOM     15  NE2 HIS A   1      24.012  -0.855   8.344  0.00  0.00    -0.221 NA
ATOM     16  CE1 HIS A   1      23.292   0.224   8.070  0.00  0.00    +0.199 A 
ATOM     17  ND1 HIS A   1      21.998  -0.092   8.171  0.00  0.00    -0.227 NA
ENDBRANCH  12  13
ENDBRANCH   1  12
TORSDOF 6
REMARK  Name = ../refined-set-2016/4q7w/4q7w_pocket.pdb
REMARK  133 active torsions:
REMARK  status: ('A' for Active; 'I' for Inactive)
REMARK    1  A    between atoms: _1  and  _3
REMARK    2  A    between atoms: _3  and  _4
REMARK    3  A    between atoms: _3  and  _6
REMARK    4  A    between atoms: _6  and  _7
REMARK    5  A    between atoms: _17  and  _19
REMARK    6  A    between atoms: _19  and  _20
REMARK    7  A    between atoms: _19  and  _22
REMARK    8  A    between atoms: _22  and  _23
REMARK    9  A    between atoms: _28  and  _29
REMARK   10  A    between atoms: _31  and  _33
REMARK   11  A    between atoms: _33  and  _34
REMARK   12  A    between atoms: _33  and  _36
REMARK   13  A    between atoms: _36  and  _37
REMARK   14  A    between atoms: _40  and  _41
REMARK   15  A    between atoms: _46  and  _48
REMARK   16  A    between atoms: _48  and  _49
REMARK   17  A    between atoms: _48  and  _51
REMARK   18  A    between atoms: _51  and  _52
REMARK   19  A    between atoms: _57  and  _59
REMARK   20  A    between atoms: _59  and  _60
REMARK   21  A    between atoms: _59  and  _62
REMARK   22  A    between atoms: _62  and  _63
REMARK   23  A    between atoms: _68  and  _70
REMARK   24  A    between atoms: _70  and  _71
REMARK   25  A    between atoms: _74  and  _76
REMARK   26  A    between atoms: _76  and  _77
REMARK   27  A    between atoms: _76  and  _79
REMARK   28  A    between atoms: _79  and  _80
REMARK   29  A    between atoms: _85  and  _87
REMARK   30  A    between atoms: _87  and  _88
REMARK   31  A    between atoms: _87  and  _90
REMARK   32  A    between atoms: _90  and  _91
REMARK   33  A    between atoms: _94  and  _96
REMARK   34  A    between atoms: _96  and  _97
REMARK   35  A    between atoms: _96  and  _99
REMARK   36  A    between atoms: _99  and  _100
REMARK   37  A    between atoms: _100  and  _101
REMARK   38  A    between atoms: _106  and  _108
REMARK   39  A    between atoms: _119  and  _122
REMARK   40  A    between atoms: _122  and  _123
REMARK   41  A    between atoms: _131  and  _132
REMARK   42  A    between atoms: _140  and  _142
REMARK   43  A    between atoms: _142  and  _143
REMARK   44  A    between atoms: _142  and  _145
REMARK   45  A    between atoms: _145  and  _146
REMARK   46  A    between atoms: _146  and  _147
REMARK   47  A    between atoms: _150  and  _152
REMARK   48  A    between atoms: _152  and  _153
REMARK   49  A    between atoms: _152  and  _155
REMARK   50  A    between atoms: _155  and  _156
REMARK   51  A    between atoms: _161  and  _163
REMARK   52  A    between atoms: _163  and  _164
REMARK   53  A    between atoms: _163  and  _166
REMARK   54  A    between atoms: _166  and  _167
REMARK   55  A    between atoms: _167  and  _168
REMARK   56  A    between atoms: _171  and  _173
REMARK   57  A    between atoms: _173  and  _174
REMARK   58  A    between atoms: _173  and  _176
REMARK   59  A    between atoms: _176  and  _177
REMARK   60  A    between atoms: _178  and  ZN_377
REMARK   61  A    between atoms: _182  and  _184
REMARK   62  A    between atoms: _184  and  _185
REMARK   63  A    between atoms: _184  and  _187
REMARK   64  A    between atoms: _187  and  _188
REMARK   65  A    between atoms: _191  and  _193
REMARK   66  A    between atoms: _193  and  _194
REMARK   67  A    between atoms: _193  and  _196
REMARK   68  A    between atoms: _199  and  _201
REMARK   69  A    between atoms: _201  and  _202
REMARK   70  A    between atoms: _201  and  _204
REMARK   71  A    between atoms: _204  and  _205
REMARK   72  A    between atoms: _210  and  _212
REMARK   73  A    between atoms: _212  and  _213
REMARK   74  A    between atoms: _212  and  _215
REMARK   75  A    between atoms: _215  and  _216
REMARK   76  A    between atoms: _222  and  _224
REMARK   77  A    between atoms: _224  and  _225
REMARK   78  A    between atoms: _224  and  _227
REMARK   79  A    between atoms: _230  and  _232
REMARK   80  A    between atoms: _232  and  _233
REMARK   81  A    between atoms: _232  and  _235
REMARK   82  A    between atoms: _235  and  _236
REMARK   83  A    between atoms: _239  and  _241
REMARK   84  A    between atoms: _241  and  _242
REMARK   85  A    between atoms: _245  and  _247
REMARK   86  A    between atoms: _247  and  _248
REMARK   87  A    between atoms: _247  and  _250
REMARK   88  A    between atoms: _253  and  _255
REMARK   89  A    between atoms: _255  and  _256
REMARK   90  A    between atoms: _255  and  _258
REMARK   91  A    between atoms: _258  and  _259
REMARK   92  A    between atoms: _262  and  _264
REMARK   93  A    between atoms: _264  and  _265
REMARK   94  A    between atoms: _264  and  _267
REMARK   95  A    between atoms: _267  and  _268
REMARK   96  A    between atoms: _270  and  _272
REMARK   97  A    between atoms: _272  and  _273
REMARK   98  A    between atoms: _272  and  _275
REMARK   99  A    between atoms: _275  and  _276
REMARK  100  A    between atoms: _279  and  _281
REMARK  101  A    between atoms: _281  and  _282
REMARK  102  A    between atoms: _281  and  _284
REMARK  103  A    between atoms: _284  and  _285
REMARK  104  A    between atoms: _288  and  _290
REMARK  105  A    between atoms: _290  and  _291
REMARK  106  A    between atoms: _290  and  _293
REMARK  107  A    between atoms: _293  and  _294
REMARK  108  A    between atoms: _298  and  _299
REMARK  109  A    between atoms: _305  and  _306
REMARK  110  A    between atoms: _311  and  _313
REMARK  111  A    between atoms: _313  and  _314
REMARK  112  A    between atoms: _313  and  _316
REMARK  113  A    between atoms: _316  and  _317
REMARK  114  A    between atoms: _320  and  _322
REMARK  115  A    between atoms: _322  and  _323
REMARK  116  A    between atoms: _322  and  _325
REMARK  117  A    between atoms: _325  and  _326
REMARK  118  A    between atoms: _329  and  _331
REMARK  119  A    between atoms: _331  and  _332
REMARK  120  A    between atoms: _331  and  _334
REMARK  121  A    between atoms: _336  and  _338
REMARK  122  A    between atoms: _338  and  _339
REMARK  123  A    between atoms: _338  and  _341
REMARK  124  A    between atoms: _344  and  _346
REMARK  125  A    between atoms: _346  and  _347
REMARK  126  A    between atoms: _346  and  _349
REMARK  127  A    between atoms: _349  and  _350
REMARK  128  A    between atoms: _360  and  _362
REMARK  129  A    between atoms: _362  and  _363
REMARK  130  A    between atoms: _362  and  _365
REMARK  131  A    between atoms: _365  and  _366
REMARK  132  A    between atoms: _366  and  _367
REMARK  133  A    between atoms: _367  and  _368
REMARK                            x       y       z     vdW  Elec       q    Type
REMARK                         _______ _______ _______ _____ _____    ______ ____
ROOT
ATOM      1  CB  ASN A   1      12.794   2.535   6.875  0.00  0.00    +0.110 C 
ENDROOT
BRANCH   1   2
ATOM      2  CG  ASN A   1      13.950   2.279   7.763  0.00  0.00    +0.221 C 
ATOM      3  OD1 ASN A   1      14.034   1.232   8.460  0.00  0.00    -0.275 OA
ATOM      4  ND2 ASN A   1      14.965   3.146   7.669  0.00  0.00    -0.329 N 
ATOM      5 HD21 ASN A   1      15.853   2.964   8.179  0.00  0.00    +0.145 HD
ATOM      6 HD22 ASN A   1      14.866   4.001   7.086  0.00  0.00    +0.145 HD
ENDBRANCH   1   2
BRANCH   1   7
ATOM      7  CA  ASN A   1      12.014   1.249   6.553  0.00  0.00    +0.142 C 
BRANCH   7   8
ATOM      8  N   ASN A   1      12.812   0.310   5.835  0.00  0.00    -0.239 NA
ATOM      9  H   ASN A   1      13.332   0.616   4.988  0.00  0.00    +0.142 HD
ENDBRANCH   7   8
BRANCH   7  10
ATOM     10  C   ASN A   1      10.787   1.654   5.782  0.00  0.00    +0.225 C 
ATOM     11  O   ASN A   1      10.903   2.044   4.615  0.00  0.00    -0.287 OA
ENDBRANCH   7  10
ENDBRANCH   1   7
TORSDOF 4
REMARK  Name = ../refined-set-2016/4q7w/4q7w_pocket.pdb
REMARK  133 active torsions:
REMARK  status: ('A' for Active; 'I' for Inactive)
REMARK    1  A    between atoms: _1  and  _3
REMARK    2  A    between atoms: _3  and  _4
REMARK    3  A    between atoms: _3  and  _6
REMARK    4  A    between atoms: _6  and  _7
REMARK    5  A    between atoms: _17  and  _19
REMARK    6  A    between atoms: _19  and  _20
REMARK    7  A    between atoms: _19  and  _22
REMARK    8  A    between atoms: _22  and  _23
REMARK    9  A    between atoms: _28  and  _29
REMARK   10  A    between atoms: _31  and  _33
REMARK   11  A    between atoms: _33  and  _34
REMARK   12  A    between atoms: _33  and  _36
REMARK   13  A    between atoms: _36  and  _37
REMARK   14  A    between atoms: _40  and  _41
REMARK   15  A    between atoms: _46  and  _48
REMARK   16  A    between atoms: _48  and  _49
REMARK   17  A    between atoms: _48  and  _51
REMARK   18  A    between atoms: _51  and  _52
REMARK   19  A    between atoms: _57  and  _59
REMARK   20  A    between atoms: _59  and  _60
REMARK   21  A    between atoms: _59  and  _62
REMARK   22  A    between atoms: _62  and  _63
REMARK   23  A    between atoms: _68  and  _70
REMARK   24  A    between atoms: _70  and  _71
REMARK   25  A    between atoms: _74  and  _76
REMARK   26  A    between atoms: _76  and  _77
REMARK   27  A    between atoms: _76  and  _79
REMARK   28  A    between atoms: _79  and  _80
REMARK   29  A    between atoms: _85  and  _87
REMARK   30  A    between atoms: _87  and  _88
REMARK   31  A    between atoms: _87  and  _90
REMARK   32  A    between atoms: _90  and  _91
REMARK   33  A    between atoms: _94  and  _96
REMARK   34  A    between atoms: _96  and  _97
REMARK   35  A    between atoms: _96  and  _99
REMARK   36  A    between atoms: _99  and  _100
REMARK   37  A    between atoms: _100  and  _101
REMARK   38  A    between atoms: _106  and  _108
REMARK   39  A    between atoms: _119  and  _122
REMARK   40  A    between atoms: _122  and  _123
REMARK   41  A    between atoms: _131  and  _132
REMARK   42  A    between atoms: _140  and  _142
REMARK   43  A    between atoms: _142  and  _143
REMARK   44  A    between atoms: _142  and  _145
REMARK   45  A    between atoms: _145  and  _146
REMARK   46  A    between atoms: _146  and  _147
REMARK   47  A    between atoms: _150  and  _152
REMARK   48  A    between atoms: _152  and  _153
REMARK   49  A    between atoms: _152  and  _155
REMARK   50  A    between atoms: _155  and  _156
REMARK   51  A    between atoms: _161  and  _163
REMARK   52  A    between atoms: _163  and  _164
REMARK   53  A    between atoms: _163  and  _166
REMARK   54  A    between atoms: _166  and  _167
REMARK   55  A    between atoms: _167  and  _168
REMARK   56  A    between atoms: _171  and  _173
REMARK   57  A    between atoms: _173  and  _174
REMARK   58  A    between atoms: _173  and  _176
REMARK   59  A    between atoms: _176  and  _177
REMARK   60  A    between atoms: _178  and  ZN_377
REMARK   61  A    between atoms: _182  and  _184
REMARK   62  A    between atoms: _184  and  _185
REMARK   63  A    between atoms: _184  and  _187
REMARK   64  A    between atoms: _187  and  _188
REMARK   65  A    between atoms: _191  and  _193
REMARK   66  A    between atoms: _193  and  _194
REMARK   67  A    between atoms: _193  and  _196
REMARK   68  A    between atoms: _199  and  _201
REMARK   69  A    between atoms: _201  and  _202
REMARK   70  A    between atoms: _201  and  _204
REMARK   71  A    between atoms: _204  and  _205
REMARK   72  A    between atoms: _210  and  _212
REMARK   73  A    between atoms: _212  and  _213
REMARK   74  A    between atoms: _212  and  _215
REMARK   75  A    between atoms: _215  and  _216
REMARK   76  A    between atoms: _222  and  _224
REMARK   77  A    between atoms: _224  and  _225
REMARK   78  A    between atoms: _224  and  _227
REMARK   79  A    between atoms: _230  and  _232
REMARK   80  A    between atoms: _232  and  _233
REMARK   81  A    between atoms: _232  and  _235
REMARK   82  A    between atoms: _235  and  _236
REMARK   83  A    between atoms: _239  and  _241
REMARK   84  A    between atoms: _241  and  _242
REMARK   85  A    between atoms: _245  and  _247
REMARK   86  A    between atoms: _247  and  _248
REMARK   87  A    between atoms: _247  and  _250
REMARK   88  A    between atoms: _253  and  _255
REMARK   89  A    between atoms: _255  and  _256
REMARK   90  A    between atoms: _255  and  _258
REMARK   91  A    between atoms: _258  and  _259
REMARK   92  A    between atoms: _262  and  _264
REMARK   93  A    between atoms: _264  and  _265
REMARK   94  A    between atoms: _264  and  _267
REMARK   95  A    between atoms: _267  and  _268
REMARK   96  A    between atoms: _270  and  _272
REMARK   97  A    between atoms: _272  and  _273
REMARK   98  A    between atoms: _272  and  _275
REMARK   99  A    between atoms: _275  and  _276
REMARK  100  A    between atoms: _279  and  _281
REMARK  101  A    between atoms: _281  and  _282
REMARK  102  A    between atoms: _281  and  _284
REMARK  103  A    between atoms: _284  and  _285
REMARK  104  A    between atoms: _288  and  _290
REMARK  105  A    between atoms: _290  and  _291
REMARK  106  A    between atoms: _290  and  _293
REMARK  107  A    between atoms: _293  and  _294
REMARK  108  A    between atoms: _298  and  _299
REMARK  109  A    between atoms: _305  and  _306
REMARK  110  A    between atoms: _311  and  _313
REMARK  111  A    between atoms: _313  and  _314
REMARK  112  A    between atoms: _313  and  _316
REMARK  113  A    between atoms: _316  and  _317
REMARK  114  A    between atoms: _320  and  _322
REMARK  115  A    between atoms: _322  and  _323
REMARK  116  A    between atoms: _322  and  _325
REMARK  117  A    between atoms: _325  and  _326
REMARK  118  A    between atoms: _329  and  _331
REMARK  119  A    between atoms: _331  and  _332
REMARK  120  A    between atoms: _331  and  _334
REMARK  121  A    between atoms: _336  and  _338
REMARK  122  A    between atoms: _338  and  _339
REMARK  123  A    between atoms: _338  and  _341
REMARK  124  A    between atoms: _344  and  _346
REMARK  125  A    between atoms: _346  and  _347
REMARK  126  A    between atoms: _346  and  _349
REMARK  127  A    between atoms: _349  and  _350
REMARK  128  A    between atoms: _360  and  _362
REMARK  129  A    between atoms: _362  and  _363
REMARK  130  A    between atoms: _362  and  _365
REMARK  131  A    between atoms: _365  and  _366
REMARK  132  A    between atoms: _366  and  _367
REMARK  133  A    between atoms: _367  and  _368
REMARK                            x       y       z     vdW  Elec       q    Type
REMARK                         _______ _______ _______ _____ _____    ______ ____
ROOT
ATOM      1  C   ILE A   1       8.337   7.336  10.720  0.00  0.00    +0.238 C 
ATOM      2  N   GLN A   2       8.485   6.119  11.263  0.00  0.00    -0.298 N 
ATOM      3  H   GLN A   2       8.391   5.983  12.290  0.00  0.00    +0.150 HD
ATOM      4  O   ILE A   1       8.432   7.544   9.500  0.00  0.00    -0.274 OA
ENDROOT
BRANCH   1   5
ATOM      5  CA  ILE A   1       8.003   8.523  11.623  0.00  0.00    +0.145 C 
BRANCH   5   6
ATOM      6  N   ILE A   1       7.104   8.154  12.708  0.00  0.00    -0.238 NA
ATOM      7  H   ILE A   1       7.441   7.477  13.422  0.00  0.00    +0.142 HD
ENDBRANCH   5   6
BRANCH   5   8
ATOM      8  CB  ILE A   1       9.255   9.213  12.161  0.00  0.00    +0.025 C 
ATOM      9  CG2 ILE A   1      10.003   8.341  13.213  0.00  0.00    +0.002 C 
BRANCH   8  10
ATOM     10  CG1 ILE A   1      10.235   9.568  10.983  0.00  0.00    +0.002 C 
ATOM     11  CD1 ILE A   1      11.485  10.438  11.462  0.00  0.00    +0.000 C 
ENDBRANCH   8  10
ENDBRANCH   5   8
ENDBRANCH   1   5
BRANCH   2  12
ATOM     12  CA  GLN A   2       8.777   5.000  10.399  0.00  0.00    +0.137 C 
BRANCH  12  13
ATOM     13  C   GLN A   2       8.497   3.737  11.140  0.00  0.00    +0.227 C 
ATOM     14  O   GLN A   2       8.407   3.763  12.360  0.00  0.00    -0.286 OA
ENDBRANCH  12  13
BRANCH  12  15
ATOM     15  CB  GLN A   2      10.225   4.984   9.930  0.00  0.00    +0.037 C 
BRANCH  15  16
ATOM     16  CG  GLN A   2      11.270   5.055  11.032  0.00  0.00    +0.087 C 
BRANCH  16  17
ATOM     17  CD  GLN A   2      12.046   3.699  11.143  0.00  0.00    +0.219 C 
ATOM     18  OE1 GLN A   2      11.422   2.666  11.380  0.00  0.00    -0.275 OA
ATOM     19  NE2 GLN A   2      13.367   3.723  11.053  0.00  0.00    -0.329 N 
ATOM     20 HE21 GLN A   2      13.913   2.848  11.184  0.00  0.00    +0.145 HD
ATOM     21 HE22 GLN A   2      13.858   4.617  10.851  0.00  0.00    +0.145 HD
ENDBRANCH  16  17
ENDBRANCH  15  16
ENDBRANCH  12  15
ENDBRANCH   2  12
TORSDOF 9
REMARK  Name = ../refined-set-2016/4q7w/4q7w_pocket.pdb
REMARK  133 active torsions:
REMARK  status: ('A' for Active; 'I' for Inactive)
REMARK    1  A    between atoms: _1  and  _3
REMARK    2  A    between atoms: _3  and  _4
REMARK    3  A    between atoms: _3  and  _6
REMARK    4  A    between atoms: _6  and  _7
REMARK    5  A    between atoms: _17  and  _19
REMARK    6  A    between atoms: _19  and  _20
REMARK    7  A    between atoms: _19  and  _22
REMARK    8  A    between atoms: _22  and  _23
REMARK    9  A    between atoms: _28  and  _29
REMARK   10  A    between atoms: _31  and  _33
REMARK   11  A    between atoms: _33  and  _34
REMARK   12  A    between atoms: _33  and  _36
REMARK   13  A    between atoms: _36  and  _37
REMARK   14  A    between atoms: _40  and  _41
REMARK   15  A    between atoms: _46  and  _48
REMARK   16  A    between atoms: _48  and  _49
REMARK   17  A    between atoms: _48  and  _51
REMARK   18  A    between atoms: _51  and  _52
REMARK   19  A    between atoms: _57  and  _59
REMARK   20  A    between atoms: _59  and  _60
REMARK   21  A    between atoms: _59  and  _62
REMARK   22  A    between atoms: _62  and  _63
REMARK   23  A    between atoms: _68  and  _70
REMARK   24  A    between atoms: _70  and  _71
REMARK   25  A    between atoms: _74  and  _76
REMARK   26  A    between atoms: _76  and  _77
REMARK   27  A    between atoms: _76  and  _79
REMARK   28  A    between atoms: _79  and  _80
REMARK   29  A    between atoms: _85  and  _87
REMARK   30  A    between atoms: _87  and  _88
REMARK   31  A    between atoms: _87  and  _90
REMARK   32  A    between atoms: _90  and  _91
REMARK   33  A    between atoms: _94  and  _96
REMARK   34  A    between atoms: _96  and  _97
REMARK   35  A    between atoms: _96  and  _99
REMARK   36  A    between atoms: _99  and  _100
REMARK   37  A    between atoms: _100  and  _101
REMARK   38  A    between atoms: _106  and  _108
REMARK   39  A    between atoms: _119  and  _122
REMARK   40  A    between atoms: _122  and  _123
REMARK   41  A    between atoms: _131  and  _132
REMARK   42  A    between atoms: _140  and  _142
REMARK   43  A    between atoms: _142  and  _143
REMARK   44  A    between atoms: _142  and  _145
REMARK   45  A    between atoms: _145  and  _146
REMARK   46  A    between atoms: _146  and  _147
REMARK   47  A    between atoms: _150  and  _152
REMARK   48  A    between atoms: _152  and  _153
REMARK   49  A    between atoms: _152  and  _155
REMARK   50  A    between atoms: _155  and  _156
REMARK   51  A    between atoms: _161  and  _163
REMARK   52  A    between atoms: _163  and  _164
REMARK   53  A    between atoms: _163  and  _166
REMARK   54  A    between atoms: _166  and  _167
REMARK   55  A    between atoms: _167  and  _168
REMARK   56  A    between atoms: _171  and  _173
REMARK   57  A    between atoms: _173  and  _174
REMARK   58  A    between atoms: _173  and  _176
REMARK   59  A    between atoms: _176  and  _177
REMARK   60  A    between atoms: _178  and  ZN_377
REMARK   61  A    between atoms: _182  and  _184
REMARK   62  A    between atoms: _184  and  _185
REMARK   63  A    between atoms: _184  and  _187
REMARK   64  A    between atoms: _187  and  _188
REMARK   65  A    between atoms: _191  and  _193
REMARK   66  A    between atoms: _193  and  _194
REMARK   67  A    between atoms: _193  and  _196
REMARK   68  A    between atoms: _199  and  _201
REMARK   69  A    between atoms: _201  and  _202
REMARK   70  A    between atoms: _201  and  _204
REMARK   71  A    between atoms: _204  and  _205
REMARK   72  A    between atoms: _210  and  _212
REMARK   73  A    between atoms: _212  and  _213
REMARK   74  A    between atoms: _212  and  _215
REMARK   75  A    between atoms: _215  and  _216
REMARK   76  A    between atoms: _222  and  _224
REMARK   77  A    between atoms: _224  and  _225
REMARK   78  A    between atoms: _224  and  _227
REMARK   79  A    between atoms: _230  and  _232
REMARK   80  A    between atoms: _232  and  _233
REMARK   81  A    between atoms: _232  and  _235
REMARK   82  A    between atoms: _235  and  _236
REMARK   83  A    between atoms: _239  and  _241
REMARK   84  A    between atoms: _241  and  _242
REMARK   85  A    between atoms: _245  and  _247
REMARK   86  A    between atoms: _247  and  _248
REMARK   87  A    between atoms: _247  and  _250
REMARK   88  A    between atoms: _253  and  _255
REMARK   89  A    between atoms: _255  and  _256
REMARK   90  A    between atoms: _255  and  _258
REMARK   91  A    between atoms: _258  and  _259
REMARK   92  A    between atoms: _262  and  _264
REMARK   93  A    between atoms: _264  and  _265
REMARK   94  A    between atoms: _264  and  _267
REMARK   95  A    between atoms: _267  and  _268
REMARK   96  A    between atoms: _270  and  _272
REMARK   97  A    between atoms: _272  and  _273
REMARK   98  A    between atoms: _272  and  _275
REMARK   99  A    between atoms: _275  and  _276
REMARK  100  A    between atoms: _279  and  _281
REMARK  101  A    between atoms: _281  and  _282
REMARK  102  A    between atoms: _281  and  _284
REMARK  103  A    between atoms: _284  and  _285
REMARK  104  A    between atoms: _288  and  _290
REMARK  105  A    between atoms: _290  and  _291
REMARK  106  A    between atoms: _290  and  _293
REMARK  107  A    between atoms: _293  and  _294
REMARK  108  A    between atoms: _298  and  _299
REMARK  109  A    between atoms: _305  and  _306
REMARK  110  A    between atoms: _311  and  _313
REMARK  111  A    between atoms: _313  and  _314
REMARK  112  A    between atoms: _313  and  _316
REMARK  113  A    between atoms: _316  and  _317
REMARK  114  A    between atoms: _320  and  _322
REMARK  115  A    between atoms: _322  and  _323
REMARK  116  A    between atoms: _322  and  _325
REMARK  117  A    between atoms: _325  and  _326
REMARK  118  A    between atoms: _329  and  _331
REMARK  119  A    between atoms: _331  and  _332
REMARK  120  A    between atoms: _331  and  _334
REMARK  121  A    between atoms: _336  and  _338
REMARK  122  A    between atoms: _338  and  _339
REMARK  123  A    between atoms: _338  and  _341
REMARK  124  A    between atoms: _344  and  _346
REMARK  125  A    between atoms: _346  and  _347
REMARK  126  A    between atoms: _346  and  _349
REMARK  127  A    between atoms: _349  and  _350
REMARK  128  A    between atoms: _360  and  _362
REMARK  129  A    between atoms: _362  and  _363
REMARK  130  A    between atoms: _362  and  _365
REMARK  131  A    between atoms: _365  and  _366
REMARK  132  A    between atoms: _366  and  _367
REMARK  133  A    between atoms: _367  and  _368
REMARK                            x       y       z     vdW  Elec       q    Type
REMARK                         _______ _______ _______ _____ _____    ______ ____
ROOT
ATOM      1  N   UNK A   3      12.845  -2.416  16.650  0.00  0.00    +0.000 N 
ATOM      2  C   UNK A   3      13.171  -3.350  17.520  0.00  0.00    +0.000 A 
ATOM      3  N   UNK A   3      12.056  -3.812  18.069  0.00  0.00    +0.000 NA
ATOM      4  C   UNK A   3      10.966  -3.118  17.517  0.00  0.00    +0.000 A 
ATOM      5  C   UNK A   3      11.477  -2.244  16.631  0.00  0.00    +0.000 A 
ENDROOT
BRANCH   1  19
ATOM      6  C   UNK A   1      10.838  -1.528  10.368  0.00  0.00    +0.000 C 
ATOM      7  C   UNK A   1      10.744  -2.814  11.177  0.00  0.00    +0.000 C 
ATOM      8  O   UNK A   1      10.123  -2.834  12.228  0.00  0.00    +0.000 OA
ATOM      9  N   LEU A   2      11.437  -3.874  10.681  0.00  0.00    +0.000 N 
ATOM     10  CA  LEU A   2      11.455  -5.134  11.388  0.00  0.00    +0.000 C 
ATOM     11  C   LEU A   2      12.912  -5.597  11.597  0.00  0.00    +0.000 C 
ATOM     12  N   UNK A   3      13.043  -6.544  12.532  0.00  0.00    +0.000 N 
ATOM     13  H   UNK A   3      12.240  -6.721  13.168  0.00  0.00    +0.000 HD
ATOM     14  C   UNK A   3      14.236  -7.332  12.706  0.00  0.00    +0.000 C 
ATOM     15  C   UNK A   3      14.823  -7.078  14.116  0.00  0.00    +0.000 C 
ATOM     16  C   UNK A   3      15.128  -5.635  14.422  0.00  0.00    +0.000 A 
ATOM     17  C   UNK A   3      14.332  -4.596  14.777  0.00  0.00    +0.000 A 
ATOM     18  N   UNK A   3      15.122  -3.460  14.899  0.00  0.00    +0.000 N 
ATOM     19 ZN   UNK A   3      14.425  -1.656  15.501  0.00  0.00    +0.000 Zn
ATOM     20  N   UNK A   3      13.650  -0.822  13.809  0.00  0.00    +0.000 N 
ATOM     21  C   UNK A   3      13.109   0.382  13.645  0.00  0.00    +0.000 A 
ATOM     22  N   UNK A   3      12.634   0.460  12.403  0.00  0.00    +0.000 NA
ATOM     23  C   UNK A   3      12.865  -0.731  11.738  0.00  0.00    +0.000 A 
ATOM     24  C   UNK A   3      13.498  -1.532  12.640  0.00  0.00    +0.000 A 
ATOM     25  C   UNK A   3      16.370  -3.818  14.589  0.00  0.00    +0.000 A 
ATOM     26  N   UNK A   3      16.378  -5.110  14.225  0.00  0.00    +0.000 NA
ATOM     27  O   LEU A   2      13.821  -5.109  10.968  0.00  0.00    +0.000 OA
ATOM     28  H   LEU A   2      11.958  -3.777   9.786  0.00  0.00    +0.000 HD
ATOM     29  C   UNK A   3      12.340  -1.037  10.360  0.00  0.00    +0.000 C 
BRANCH   6  30
ATOM     30  N   UNK A   1       9.938  -0.546  10.951  0.00  0.00    +0.000 NA
ATOM     31  H   UNK A   1       9.673  -0.641  11.952  0.00  0.00    +0.000 HD
ENDBRANCH   6  30
BRANCH  14  32
ATOM     32  C   UNK A   3      13.778  -8.821  12.616  0.00  0.00    +0.000 C 
ATOM     33  O   UNK A   3      12.690  -9.159  13.135  0.00  0.00    +0.000 OA
ENDBRANCH  14  32
BRANCH  10  34
ATOM     34  CB  LEU A   2      10.754  -6.219  10.541  0.00  0.00    +0.000 C 
BRANCH  34  35
ATOM     35  CG  LEU A   2       9.304  -5.930  10.229  0.00  0.00    +0.000 A 
ATOM     36  CD2 LEU A   2       8.311  -6.628  10.887  0.00  0.00    +0.000 A 
ATOM     37  CE2 LEU A   2       6.951  -6.427  10.517  0.00  0.00    +0.000 A 
ATOM     38  CZ  LEU A   2       6.630  -5.472   9.449  0.00  0.00    +0.000 A 
ATOM     39  CE1 LEU A   2       7.580  -4.833   8.781  0.00  0.00    +0.000 A 
ATOM     40  CD1 LEU A   2       8.960  -5.077   9.119  0.00  0.00    +0.000 A 
ENDBRANCH  34  35
ENDBRANCH  10  34
ENDBRANCH   1  19
BRANCH   5  41
ATOM     41  C   UNK A   3      10.822  -1.247  15.726  0.00  0.00    +0.000 C 
BRANCH  41  42
ATOM     42  C   UNK A   3       9.306  -1.522  15.667  0.00  0.00    +0.000 C 
BRANCH  42  43
ATOM     43  C   UNK A   3       8.653  -0.377  14.941  0.00  0.00    +0.000 C 
ATOM     44  N   LEU A   2       7.632   0.184  15.602  0.00  0.00    +0.000 N 
ATOM     45  H   LEU A   2       7.278  -0.285  16.460  0.00  0.00    +0.000 HD
ATOM     46  O   UNK A   3       9.064   0.001  13.801  0.00  0.00    +0.000 OA
BRANCH  44  47
ATOM     47  CA  LEU A   2       6.969   1.472  15.156  0.00  0.00    +0.000 C 
BRANCH  47  48
ATOM     48  C   LEU A   2       7.546   2.618  15.945  0.00  0.00    +0.000 C 
ATOM     49  O   LEU A   2       7.449   2.626  17.179  0.00  0.00    +0.000 OA
ATOM     50  N   UNK A   3       8.288   3.459  15.210  0.00  0.00    +0.000 N 
ATOM     51  H   UNK A   3       8.265   3.388  14.173  0.00  0.00    +0.000 HD
BRANCH  50  52
ATOM     52  C   UNK A   3       9.142   4.489  15.852  0.00  0.00    +0.000 C 
BRANCH  52  53
ATOM     53  C   UNK A   3       8.443   5.829  15.866  0.00  0.00    +0.000 C 
ATOM     54  N   HIS A   4       8.379   6.434  17.031  0.00  0.00    +0.000 N 
ATOM     55  H   HIS A   4       8.850   6.001  17.851  0.00  0.00    +0.000 HD
ATOM     56  O   UNK A   3       7.993   6.286  14.789  0.00  0.00    +0.000 OA
BRANCH  54  57
ATOM     57  CA  HIS A   4       7.664   7.701  17.209  0.00  0.00    +0.000 C 
BRANCH  57  58
ATOM     58  C   HIS A   4       8.527   8.664  17.997  0.00  0.00    +0.000 C 
ATOM     59  O   HIS A   4       9.251   8.296  18.902  0.00  0.00    +0.000 OA
ENDBRANCH  57  58
BRANCH  57  60
ATOM     60  CB  HIS A   4       6.348   7.524  18.066  0.00  0.00    +0.000 C 
BRANCH  60  61
ATOM     61  CG  HIS A   4       5.436   6.405  17.637  0.00  0.00    +0.000 A 
ATOM     62  ND1 HIS A   4       5.780   5.070  17.853  0.00  0.00    +0.000 NA
ATOM     63  CE1 HIS A   4       4.794   4.294  17.381  0.00  0.00    +0.000 A 
ATOM     64  NE2 HIS A   4       3.849   5.075  16.845  0.00  0.00    +0.000 NA
ATOM     65  CD2 HIS A   4       4.239   6.397  16.981  0.00  0.00    +0.000 A 
ENDBRANCH  60  61
ENDBRANCH  57  60
ENDBRANCH  54  57
ENDBRANCH  52  53
BRANCH  52  66
ATOM     66  C   UNK A   3      10.446   4.625  15.078  0.00  0.00    +0.000 C 
ATOM     67  C   UNK A   3      11.351   5.718  15.729  0.00  0.00    +0.000 C 
ATOM     68  C   UNK A   3      11.185   3.282  14.972  0.00  0.00    +0.000 C 
ENDBRANCH  52  66
ENDBRANCH  50  52
ENDBRANCH  47  48
BRANCH  47  69
ATOM     69  CB  LEU A   2       5.446   1.383  15.281  0.00  0.00    +0.000 C 
BRANCH  69  70
ATOM     70  CG  LEU A   2       4.808   0.251  14.418  0.00  0.00    +0.000 C 
ATOM     71  CD2 LEU A   2       3.915  -0.605  15.276  0.00  0.00    +0.000 C 
ATOM     72  CD1 LEU A   2       3.966   0.951  13.291  0.00  0.00    +0.000 C 
ENDBRANCH  69  70
ENDBRANCH  47  69
ENDBRANCH  44  47
ENDBRANCH  42  43
BRANCH  42  73
ATOM     73  N   UNK A   3       9.076  -2.726  14.897  0.00  0.00    +0.000 NA
ATOM     74  H   UNK A   1       9.406  -2.753  13.911  0.00  0.00    +0.000 HD
ENDBRANCH  42  73
ENDBRANCH  41  42
ENDBRANCH   5  41
TORSDOF 20
REMARK  Name = ../refined-set-2016/4q7w/4q7w_pocket.pdb
REMARK  133 active torsions:
REMARK  status: ('A' for Active; 'I' for Inactive)
REMARK    1  A    between atoms: _1  and  _3
REMARK    2  A    between atoms: _3  and  _4
REMARK    3  A    between atoms: _3  and  _6
REMARK    4  A    between atoms: _6  and  _7
REMARK    5  A    between atoms: _17  and  _19
REMARK    6  A    between atoms: _19  and  _20
REMARK    7  A    between atoms: _19  and  _22
REMARK    8  A    between atoms: _22  and  _23
REMARK    9  A    between atoms: _28  and  _29
REMARK   10  A    between atoms: _31  and  _33
REMARK   11  A    between atoms: _33  and  _34
REMARK   12  A    between atoms: _33  and  _36
REMARK   13  A    between atoms: _36  and  _37
REMARK   14  A    between atoms: _40  and  _41
REMARK   15  A    between atoms: _46  and  _48
REMARK   16  A    between atoms: _48  and  _49
REMARK   17  A    between atoms: _48  and  _51
REMARK   18  A    between atoms: _51  and  _52
REMARK   19  A    between atoms: _57  and  _59
REMARK   20  A    between atoms: _59  and  _60
REMARK   21  A    between atoms: _59  and  _62
REMARK   22  A    between atoms: _62  and  _63
REMARK   23  A    between atoms: _68  and  _70
REMARK   24  A    between atoms: _70  and  _71
REMARK   25  A    between atoms: _74  and  _76
REMARK   26  A    between atoms: _76  and  _77
REMARK   27  A    between atoms: _76  and  _79
REMARK   28  A    between atoms: _79  and  _80
REMARK   29  A    between atoms: _85  and  _87
REMARK   30  A    between atoms: _87  and  _88
REMARK   31  A    between atoms: _87  and  _90
REMARK   32  A    between atoms: _90  and  _91
REMARK   33  A    between atoms: _94  and  _96
REMARK   34  A    between atoms: _96  and  _97
REMARK   35  A    between atoms: _96  and  _99
REMARK   36  A    between atoms: _99  and  _100
REMARK   37  A    between atoms: _100  and  _101
REMARK   38  A    between atoms: _106  and  _108
REMARK   39  A    between atoms: _119  and  _122
REMARK   40  A    between atoms: _122  and  _123
REMARK   41  A    between atoms: _131  and  _132
REMARK   42  A    between atoms: _140  and  _142
REMARK   43  A    between atoms: _142  and  _143
REMARK   44  A    between atoms: _142  and  _145
REMARK   45  A    between atoms: _145  and  _146
REMARK   46  A    between atoms: _146  and  _147
REMARK   47  A    between atoms: _150  and  _152
REMARK   48  A    between atoms: _152  and  _153
REMARK   49  A    between atoms: _152  and  _155
REMARK   50  A    between atoms: _155  and  _156
REMARK   51  A    between atoms: _161  and  _163
REMARK   52  A    between atoms: _163  and  _164
REMARK   53  A    between atoms: _163  and  _166
REMARK   54  A    between atoms: _166  and  _167
REMARK   55  A    between atoms: _167  and  _168
REMARK   56  A    between atoms: _171  and  _173
REMARK   57  A    between atoms: _173  and  _174
REMARK   58  A    between atoms: _173  and  _176
REMARK   59  A    between atoms: _176  and  _177
REMARK   60  A    between atoms: _178  and  ZN_377
REMARK   61  A    between atoms: _182  and  _184
REMARK   62  A    between atoms: _184  and  _185
REMARK   63  A    between atoms: _184  and  _187
REMARK   64  A    between atoms: _187  and  _188
REMARK   65  A    between atoms: _191  and  _193
REMARK   66  A    between atoms: _193  and  _194
REMARK   67  A    between atoms: _193  and  _196
REMARK   68  A    between atoms: _199  and  _201
REMARK   69  A    between atoms: _201  and  _202
REMARK   70  A    between atoms: _201  and  _204
REMARK   71  A    between atoms: _204  and  _205
REMARK   72  A    between atoms: _210  and  _212
REMARK   73  A    between atoms: _212  and  _213
REMARK   74  A    between atoms: _212  and  _215
REMARK   75  A    between atoms: _215  and  _216
REMARK   76  A    between atoms: _222  and  _224
REMARK   77  A    between atoms: _224  and  _225
REMARK   78  A    between atoms: _224  and  _227
REMARK   79  A    between atoms: _230  and  _232
REMARK   80  A    between atoms: _232  and  _233
REMARK   81  A    between atoms: _232  and  _235
REMARK   82  A    between atoms: _235  and  _236
REMARK   83  A    between atoms: _239  and  _241
REMARK   84  A    between atoms: _241  and  _242
REMARK   85  A    between atoms: _245  and  _247
REMARK   86  A    between atoms: _247  and  _248
REMARK   87  A    between atoms: _247  and  _250
REMARK   88  A    between atoms: _253  and  _255
REMARK   89  A    between atoms: _255  and  _256
REMARK   90  A    between atoms: _255  and  _258
REMARK   91  A    between atoms: _258  and  _259
REMARK   92  A    between atoms: _262  and  _264
REMARK   93  A    between atoms: _264  and  _265
REMARK   94  A    between atoms: _264  and  _267
REMARK   95  A    between atoms: _267  and  _268
REMARK   96  A    between atoms: _270  and  _272
REMARK   97  A    between atoms: _272  and  _273
REMARK   98  A    between atoms: _272  and  _275
REMARK   99  A    between atoms: _275  and  _276
REMARK  100  A    between atoms: _279  and  _281
REMARK  101  A    between atoms: _281  and  _282
REMARK  102  A    between atoms: _281  and  _284
REMARK  103  A    between atoms: _284  and  _285
REMARK  104  A    between atoms: _288  and  _290
REMARK  105  A    between atoms: _290  and  _291
REMARK  106  A    between atoms: _290  and  _293
REMARK  107  A    between atoms: _293  and  _294
REMARK  108  A    between atoms: _298  and  _299
REMARK  109  A    between atoms: _305  and  _306
REMARK  110  A    between atoms: _311  and  _313
REMARK  111  A    between atoms: _313  and  _314
REMARK  112  A    between atoms: _313  and  _316
REMARK  113  A    between atoms: _316  and  _317
REMARK  114  A    between atoms: _320  and  _322
REMARK  115  A    between atoms: _322  and  _323
REMARK  116  A    between atoms: _322  and  _325
REMARK  117  A    between atoms: _325  and  _326
REMARK  118  A    between atoms: _329  and  _331
REMARK  119  A    between atoms: _331  and  _332
REMARK  120  A    between atoms: _331  and  _334
REMARK  121  A    between atoms: _336  and  _338
REMARK  122  A    between atoms: _338  and  _339
REMARK  123  A    between atoms: _338  and  _341
REMARK  124  A    between atoms: _344  and  _346
REMARK  125  A    between atoms: _346  and  _347
REMARK  126  A    between atoms: _346  and  _349
REMARK  127  A    between atoms: _349  and  _350
REMARK  128  A    between atoms: _360  and  _362
REMARK  129  A    between atoms: _362  and  _363
REMARK  130  A    between atoms: _362  and  _365
REMARK  131  A    between atoms: _365  and  _366
REMARK  132  A    between atoms: _366  and  _367
REMARK  133  A    between atoms: _367  and  _368
REMARK                            x       y       z     vdW  Elec       q    Type
REMARK                         _______ _______ _______ _____ _____    ______ ____
ROOT
ATOM      1  C   GLU A   1      15.005  -8.674  21.160  0.00  0.00    +0.238 C 
ATOM      2  O   GLU A   1      15.760  -9.251  21.950  0.00  0.00    -0.274 OA
ATOM      3  N   HIS A   2      13.832  -8.168  21.577  0.00  0.00    -0.298 N 
ATOM      4  H   HIS A   2      13.271  -7.521  20.987  0.00  0.00    +0.150 HD
ENDROOT
BRANCH   1   5
ATOM      5  CA  GLU A   1      15.396  -8.537  19.701  0.00  0.00    +0.145 C 
BRANCH   5   6
ATOM      6  N   GLU A   1      14.351  -9.230  18.847  0.00  0.00    -0.238 NA
ATOM      7  H   GLU A   1      13.497  -8.707  18.565  0.00  0.00    +0.142 HD
ENDBRANCH   5   6
BRANCH   5   8
ATOM      8  CB  GLU A   1      15.461  -7.075  19.262  0.00  0.00    +0.038 C 
BRANCH   8   9
ATOM      9  CG  GLU A   1      16.066  -7.015  17.804  0.00  0.00    +0.116 C 
BRANCH   9  10
ATOM     10  CD  GLU A   1      16.621  -5.699  17.488  0.00  0.00    +0.365 C 
ATOM     11  OE2 GLU A   1      15.958  -4.683  17.690  0.00  0.00    -0.246 OA
ATOM     12  OE1 GLU A   1      17.743  -5.720  16.988  0.00  0.00    -0.246 OA
ENDBRANCH   9  10
ENDBRANCH   8   9
ENDBRANCH   5   8
ENDBRANCH   1   5
BRANCH   3  13
ATOM     13  CA  HIS A   2      13.387  -8.582  22.915  0.00  0.00    +0.143 C 
BRANCH  13  14
ATOM     14  C   HIS A   2      13.063 -10.044  22.889  0.00  0.00    +0.227 C 
ATOM     15  O   HIS A   2      12.659 -10.630  21.860  0.00  0.00    -0.286 OA
ENDBRANCH  13  14
BRANCH  13  16
ATOM     16  CB  HIS A   2      12.138  -7.739  23.291  0.00  0.00    +0.075 C 
BRANCH  16  17
ATOM     17  CG  HIS A   2      12.493  -6.273  23.377  0.00  0.00    +0.082 A 
ATOM     18  CD2 HIS A   2      12.925  -5.569  24.449  0.00  0.00    +0.115 A 
ATOM     19  NE2 HIS A   2      13.202  -4.290  24.041  0.00  0.00    -0.221 NA
ATOM     20  CE1 HIS A   2      12.860  -4.186  22.757  0.00  0.00    +0.199 A 
ATOM     21  ND1 HIS A   2      12.451  -5.384  22.322  0.00  0.00    -0.227 NA
ENDBRANCH  16  17
ENDBRANCH  13  16
ENDBRANCH   3  13
TORSDOF 9
REMARK  Name = ../refined-set-2016/4q7w/4q7w_pocket.pdb
REMARK  133 active torsions:
REMARK  status: ('A' for Active; 'I' for Inactive)
REMARK    1  A    between atoms: _1  and  _3
REMARK    2  A    between atoms: _3  and  _4
REMARK    3  A    between atoms: _3  and  _6
REMARK    4  A    between atoms: _6  and  _7
REMARK    5  A    between atoms: _17  and  _19
REMARK    6  A    between atoms: _19  and  _20
REMARK    7  A    between atoms: _19  and  _22
REMARK    8  A    between atoms: _22  and  _23
REMARK    9  A    between atoms: _28  and  _29
REMARK   10  A    between atoms: _31  and  _33
REMARK   11  A    between atoms: _33  and  _34
REMARK   12  A    between atoms: _33  and  _36
REMARK   13  A    between atoms: _36  and  _37
REMARK   14  A    between atoms: _40  and  _41
REMARK   15  A    between atoms: _46  and  _48
REMARK   16  A    between atoms: _48  and  _49
REMARK   17  A    between atoms: _48  and  _51
REMARK   18  A    between atoms: _51  and  _52
REMARK   19  A    between atoms: _57  and  _59
REMARK   20  A    between atoms: _59  and  _60
REMARK   21  A    between atoms: _59  and  _62
REMARK   22  A    between atoms: _62  and  _63
REMARK   23  A    between atoms: _68  and  _70
REMARK   24  A    between atoms: _70  and  _71
REMARK   25  A    between atoms: _74  and  _76
REMARK   26  A    between atoms: _76  and  _77
REMARK   27  A    between atoms: _76  and  _79
REMARK   28  A    between atoms: _79  and  _80
REMARK   29  A    between atoms: _85  and  _87
REMARK   30  A    between atoms: _87  and  _88
REMARK   31  A    between atoms: _87  and  _90
REMARK   32  A    between atoms: _90  and  _91
REMARK   33  A    between atoms: _94  and  _96
REMARK   34  A    between atoms: _96  and  _97
REMARK   35  A    between atoms: _96  and  _99
REMARK   36  A    between atoms: _99  and  _100
REMARK   37  A    between atoms: _100  and  _101
REMARK   38  A    between atoms: _106  and  _108
REMARK   39  A    between atoms: _119  and  _122
REMARK   40  A    between atoms: _122  and  _123
REMARK   41  A    between atoms: _131  and  _132
REMARK   42  A    between atoms: _140  and  _142
REMARK   43  A    between atoms: _142  and  _143
REMARK   44  A    between atoms: _142  and  _145
REMARK   45  A    between atoms: _145  and  _146
REMARK   46  A    between atoms: _146  and  _147
REMARK   47  A    between atoms: _150  and  _152
REMARK   48  A    between atoms: _152  and  _153
REMARK   49  A    between atoms: _152  and  _155
REMARK   50  A    between atoms: _155  and  _156
REMARK   51  A    between atoms: _161  and  _163
REMARK   52  A    between atoms: _163  and  _164
REMARK   53  A    between atoms: _163  and  _166
REMARK   54  A    between atoms: _166  and  _167
REMARK   55  A    between atoms: _167  and  _168
REMARK   56  A    between atoms: _171  and  _173
REMARK   57  A    between atoms: _173  and  _174
REMARK   58  A    between atoms: _173  and  _176
REMARK   59  A    between atoms: _176  and  _177
REMARK   60  A    between atoms: _178  and  ZN_377
REMARK   61  A    between atoms: _182  and  _184
REMARK   62  A    between atoms: _184  and  _185
REMARK   63  A    between atoms: _184  and  _187
REMARK   64  A    between atoms: _187  and  _188
REMARK   65  A    between atoms: _191  and  _193
REMARK   66  A    between atoms: _193  and  _194
REMARK   67  A    between atoms: _193  and  _196
REMARK   68  A    between atoms: _199  and  _201
REMARK   69  A    between atoms: _201  and  _202
REMARK   70  A    between atoms: _201  and  _204
REMARK   71  A    between atoms: _204  and  _205
REMARK   72  A    between atoms: _210  and  _212
REMARK   73  A    between atoms: _212  and  _213
REMARK   74  A    between atoms: _212  and  _215
REMARK   75  A    between atoms: _215  and  _216
REMARK   76  A    between atoms: _222  and  _224
REMARK   77  A    between atoms: _224  and  _225
REMARK   78  A    between atoms: _224  and  _227
REMARK   79  A    between atoms: _230  and  _232
REMARK   80  A    between atoms: _232  and  _233
REMARK   81  A    between atoms: _232  and  _235
REMARK   82  A    between atoms: _235  and  _236
REMARK   83  A    between atoms: _239  and  _241
REMARK   84  A    between atoms: _241  and  _242
REMARK   85  A    between atoms: _245  and  _247
REMARK   86  A    between atoms: _247  and  _248
REMARK   87  A    between atoms: _247  and  _250
REMARK   88  A    between atoms: _253  and  _255
REMARK   89  A    between atoms: _255  and  _256
REMARK   90  A    between atoms: _255  and  _258
REMARK   91  A    between atoms: _258  and  _259
REMARK   92  A    between atoms: _262  and  _264
REMARK   93  A    between atoms: _264  and  _265
REMARK   94  A    between atoms: _264  and  _267
REMARK   95  A    between atoms: _267  and  _268
REMARK   96  A    between atoms: _270  and  _272
REMARK   97  A    between atoms: _272  and  _273
REMARK   98  A    between atoms: _272  and  _275
REMARK   99  A    between atoms: _275  and  _276
REMARK  100  A    between atoms: _279  and  _281
REMARK  101  A    between atoms: _281  and  _282
REMARK  102  A    between atoms: _281  and  _284
REMARK  103  A    between atoms: _284  and  _285
REMARK  104  A    between atoms: _288  and  _290
REMARK  105  A    between atoms: _290  and  _291
REMARK  106  A    between atoms: _290  and  _293
REMARK  107  A    between atoms: _293  and  _294
REMARK  108  A    between atoms: _298  and  _299
REMARK  109  A    between atoms: _305  and  _306
REMARK  110  A    between atoms: _311  and  _313
REMARK  111  A    between atoms: _313  and  _314
REMARK  112  A    between atoms: _313  and  _316
REMARK  113  A    between atoms: _316  and  _317
REMARK  114  A    between atoms: _320  and  _322
REMARK  115  A    between atoms: _322  and  _323
REMARK  116  A    between atoms: _322  and  _325
REMARK  117  A    between atoms: _325  and  _326
REMARK  118  A    between atoms: _329  and  _331
REMARK  119  A    between atoms: _331  and  _332
REMARK  120  A    between atoms: _331  and  _334
REMARK  121  A    between atoms: _336  and  _338
REMARK  122  A    between atoms: _338  and  _339
REMARK  123  A    between atoms: _338  and  _341
REMARK  124  A    between atoms: _344  and  _346
REMARK  125  A    between atoms: _346  and  _347
REMARK  126  A    between atoms: _346  and  _349
REMARK  127  A    between atoms: _349  and  _350
REMARK  128  A    between atoms: _360  and  _362
REMARK  129  A    between atoms: _362  and  _363
REMARK  130  A    between atoms: _362  and  _365
REMARK  131  A    between atoms: _365  and  _366
REMARK  132  A    between atoms: _366  and  _367
REMARK  133  A    between atoms: _367  and  _368
REMARK                            x       y       z     vdW  Elec       q    Type
REMARK                         _______ _______ _______ _____ _____    ______ ____
ROOT
ATOM      1  CA  GLU A   1       9.878  -8.057  15.742  0.00  0.00    +0.134 C 
ENDROOT
BRANCH   1   2
ATOM      2  N   GLU A   1      10.425  -9.109  14.850  0.00  0.00    -0.239 NA
ATOM      3  H   GLU A   1      11.042  -8.836  14.059  0.00  0.00    +0.142 HD
ENDBRANCH   1   2
BRANCH   1   4
ATOM      4  C   GLU A   1       9.761  -6.786  14.898  0.00  0.00    +0.224 C 
ATOM      5  O   GLU A   1      10.701  -6.402  14.148  0.00  0.00    -0.287 OA
ENDBRANCH   1   4
BRANCH   1   6
ATOM      6  CB  GLU A   1      10.881  -7.887  16.908  0.00  0.00    +0.037 C 
BRANCH   6   7
ATOM      7  CG  GLU A   1      10.396  -6.917  17.984  0.00  0.00    +0.116 C 
BRANCH   7   8
ATOM      8  CD  GLU A   1      11.319  -6.838  19.186  0.00  0.00    +0.365 C 
ATOM      9  OE2 GLU A   1      11.379  -5.721  19.774  0.00  0.00    -0.246 OA
ATOM     10  OE1 GLU A   1      11.930  -7.865  19.519  0.00  0.00    -0.246 OA
ENDBRANCH   7   8
ENDBRANCH   6   7
ENDBRANCH   1   6
TORSDOF 5
REMARK  Name = ../refined-set-2016/4q7w/4q7w_pocket.pdb
REMARK  133 active torsions:
REMARK  status: ('A' for Active; 'I' for Inactive)
REMARK    1  A    between atoms: _1  and  _3
REMARK    2  A    between atoms: _3  and  _4
REMARK    3  A    between atoms: _3  and  _6
REMARK    4  A    between atoms: _6  and  _7
REMARK    5  A    between atoms: _17  and  _19
REMARK    6  A    between atoms: _19  and  _20
REMARK    7  A    between atoms: _19  and  _22
REMARK    8  A    between atoms: _22  and  _23
REMARK    9  A    between atoms: _28  and  _29
REMARK   10  A    between atoms: _31  and  _33
REMARK   11  A    between atoms: _33  and  _34
REMARK   12  A    between atoms: _33  and  _36
REMARK   13  A    between atoms: _36  and  _37
REMARK   14  A    between atoms: _40  and  _41
REMARK   15  A    between atoms: _46  and  _48
REMARK   16  A    between atoms: _48  and  _49
REMARK   17  A    between atoms: _48  and  _51
REMARK   18  A    between atoms: _51  and  _52
REMARK   19  A    between atoms: _57  and  _59
REMARK   20  A    between atoms: _59  and  _60
REMARK   21  A    between atoms: _59  and  _62
REMARK   22  A    between atoms: _62  and  _63
REMARK   23  A    between atoms: _68  and  _70
REMARK   24  A    between atoms: _70  and  _71
REMARK   25  A    between atoms: _74  and  _76
REMARK   26  A    between atoms: _76  and  _77
REMARK   27  A    between atoms: _76  and  _79
REMARK   28  A    between atoms: _79  and  _80
REMARK   29  A    between atoms: _85  and  _87
REMARK   30  A    between atoms: _87  and  _88
REMARK   31  A    between atoms: _87  and  _90
REMARK   32  A    between atoms: _90  and  _91
REMARK   33  A    between atoms: _94  and  _96
REMARK   34  A    between atoms: _96  and  _97
REMARK   35  A    between atoms: _96  and  _99
REMARK   36  A    between atoms: _99  and  _100
REMARK   37  A    between atoms: _100  and  _101
REMARK   38  A    between atoms: _106  and  _108
REMARK   39  A    between atoms: _119  and  _122
REMARK   40  A    between atoms: _122  and  _123
REMARK   41  A    between atoms: _131  and  _132
REMARK   42  A    between atoms: _140  and  _142
REMARK   43  A    between atoms: _142  and  _143
REMARK   44  A    between atoms: _142  and  _145
REMARK   45  A    between atoms: _145  and  _146
REMARK   46  A    between atoms: _146  and  _147
REMARK   47  A    between atoms: _150  and  _152
REMARK   48  A    between atoms: _152  and  _153
REMARK   49  A    between atoms: _152  and  _155
REMARK   50  A    between atoms: _155  and  _156
REMARK   51  A    between atoms: _161  and  _163
REMARK   52  A    between atoms: _163  and  _164
REMARK   53  A    between atoms: _163  and  _166
REMARK   54  A    between atoms: _166  and  _167
REMARK   55  A    between atoms: _167  and  _168
REMARK   56  A    between atoms: _171  and  _173
REMARK   57  A    between atoms: _173  and  _174
REMARK   58  A    between atoms: _173  and  _176
REMARK   59  A    between atoms: _176  and  _177
REMARK   60  A    between atoms: _178  and  ZN_377
REMARK   61  A    between atoms: _182  and  _184
REMARK   62  A    between atoms: _184  and  _185
REMARK   63  A    between atoms: _184  and  _187
REMARK   64  A    between atoms: _187  and  _188
REMARK   65  A    between atoms: _191  and  _193
REMARK   66  A    between atoms: _193  and  _194
REMARK   67  A    between atoms: _193  and  _196
REMARK   68  A    between atoms: _199  and  _201
REMARK   69  A    between atoms: _201  and  _202
REMARK   70  A    between atoms: _201  and  _204
REMARK   71  A    between atoms: _204  and  _205
REMARK   72  A    between atoms: _210  and  _212
REMARK   73  A    between atoms: _212  and  _213
REMARK   74  A    between atoms: _212  and  _215
REMARK   75  A    between atoms: _215  and  _216
REMARK   76  A    between atoms: _222  and  _224
REMARK   77  A    between atoms: _224  and  _225
REMARK   78  A    between atoms: _224  and  _227
REMARK   79  A    between atoms: _230  and  _232
REMARK   80  A    between atoms: _232  and  _233
REMARK   81  A    between atoms: _232  and  _235
REMARK   82  A    between atoms: _235  and  _236
REMARK   83  A    between atoms: _239  and  _241
REMARK   84  A    between atoms: _241  and  _242
REMARK   85  A    between atoms: _245  and  _247
REMARK   86  A    between atoms: _247  and  _248
REMARK   87  A    between atoms: _247  and  _250
REMARK   88  A    between atoms: _253  and  _255
REMARK   89  A    between atoms: _255  and  _256
REMARK   90  A    between atoms: _255  and  _258
REMARK   91  A    between atoms: _258  and  _259
REMARK   92  A    between atoms: _262  and  _264
REMARK   93  A    between atoms: _264  and  _265
REMARK   94  A    between atoms: _264  and  _267
REMARK   95  A    between atoms: _267  and  _268
REMARK   96  A    between atoms: _270  and  _272
REMARK   97  A    between atoms: _272  and  _273
REMARK   98  A    between atoms: _272  and  _275
REMARK   99  A    between atoms: _275  and  _276
REMARK  100  A    between atoms: _279  and  _281
REMARK  101  A    between atoms: _281  and  _282
REMARK  102  A    between atoms: _281  and  _284
REMARK  103  A    between atoms: _284  and  _285
REMARK  104  A    between atoms: _288  and  _290
REMARK  105  A    between atoms: _290  and  _291
REMARK  106  A    between atoms: _290  and  _293
REMARK  107  A    between atoms: _293  and  _294
REMARK  108  A    between atoms: _298  and  _299
REMARK  109  A    between atoms: _305  and  _306
REMARK  110  A    between atoms: _311  and  _313
REMARK  111  A    between atoms: _313  and  _314
REMARK  112  A    between atoms: _313  and  _316
REMARK  113  A    between atoms: _316  and  _317
REMARK  114  A    between atoms: _320  and  _322
REMARK  115  A    between atoms: _322  and  _323
REMARK  116  A    between atoms: _322  and  _325
REMARK  117  A    between atoms: _325  and  _326
REMARK  118  A    between atoms: _329  and  _331
REMARK  119  A    between atoms: _331  and  _332
REMARK  120  A    between atoms: _331  and  _334
REMARK  121  A    between atoms: _336  and  _338
REMARK  122  A    between atoms: _338  and  _339
REMARK  123  A    between atoms: _338  and  _341
REMARK  124  A    between atoms: _344  and  _346
REMARK  125  A    between atoms: _346  and  _347
REMARK  126  A    between atoms: _346  and  _349
REMARK  127  A    between atoms: _349  and  _350
REMARK  128  A    between atoms: _360  and  _362
REMARK  129  A    between atoms: _362  and  _363
REMARK  130  A    between atoms: _362  and  _365
REMARK  131  A    between atoms: _365  and  _366
REMARK  132  A    between atoms: _366  and  _367
REMARK  133  A    between atoms: _367  and  _368
REMARK                            x       y       z     vdW  Elec       q    Type
REMARK                         _______ _______ _______ _____ _____    ______ ____
ROOT
ATOM      1  CB  PHE A   1      13.175  12.620  14.018  0.00  0.00    +0.051 C 
ENDROOT
BRANCH   1   2
ATOM      2  CG  PHE A   1      13.858  11.271  14.245  0.00  0.00    -0.020 A 
ATOM      3  CD2 PHE A   1      13.178  10.241  14.895  0.00  0.00    -0.004 A 
ATOM      4  CE2 PHE A   1      13.790   9.016  15.087  0.00  0.00    -0.000 A 
ATOM      5  CZ  PHE A   1      15.095   8.864  14.792  0.00  0.00    -0.000 A 
ATOM      6  CE1 PHE A   1      15.821   9.899  14.193  0.00  0.00    -0.000 A 
ATOM      7  CD1 PHE A   1      15.228  11.134  13.993  0.00  0.00    -0.004 A 
ENDBRANCH   1   2
BRANCH   1   8
ATOM      8  CA  PHE A   1      13.279  13.587  15.219  0.00  0.00    +0.137 C 
BRANCH   8   9
ATOM      9  N   PHE A   1      12.702  14.863  14.810  0.00  0.00    -0.239 NA
ATOM     10  H   PHE A   1      12.395  14.980  13.823  0.00  0.00    +0.142 HD
ENDBRANCH   8   9
BRANCH   8  11
ATOM     11  C   PHE A   1      14.709  13.826  15.574  0.00  0.00    +0.224 C 
ATOM     12  O   PHE A   1      15.162  13.265  16.574  0.00  0.00    -0.287 OA
ENDBRANCH   8  11
ENDBRANCH   1   8
TORSDOF 4
REMARK  Name = ../refined-set-2016/4q7w/4q7w_pocket.pdb
REMARK  133 active torsions:
REMARK  status: ('A' for Active; 'I' for Inactive)
REMARK    1  A    between atoms: _1  and  _3
REMARK    2  A    between atoms: _3  and  _4
REMARK    3  A    between atoms: _3  and  _6
REMARK    4  A    between atoms: _6  and  _7
REMARK    5  A    between atoms: _17  and  _19
REMARK    6  A    between atoms: _19  and  _20
REMARK    7  A    between atoms: _19  and  _22
REMARK    8  A    between atoms: _22  and  _23
REMARK    9  A    between atoms: _28  and  _29
REMARK   10  A    between atoms: _31  and  _33
REMARK   11  A    between atoms: _33  and  _34
REMARK   12  A    between atoms: _33  and  _36
REMARK   13  A    between atoms: _36  and  _37
REMARK   14  A    between atoms: _40  and  _41
REMARK   15  A    between atoms: _46  and  _48
REMARK   16  A    between atoms: _48  and  _49
REMARK   17  A    between atoms: _48  and  _51
REMARK   18  A    between atoms: _51  and  _52
REMARK   19  A    between atoms: _57  and  _59
REMARK   20  A    between atoms: _59  and  _60
REMARK   21  A    between atoms: _59  and  _62
REMARK   22  A    between atoms: _62  and  _63
REMARK   23  A    between atoms: _68  and  _70
REMARK   24  A    between atoms: _70  and  _71
REMARK   25  A    between atoms: _74  and  _76
REMARK   26  A    between atoms: _76  and  _77
REMARK   27  A    between atoms: _76  and  _79
REMARK   28  A    between atoms: _79  and  _80
REMARK   29  A    between atoms: _85  and  _87
REMARK   30  A    between atoms: _87  and  _88
REMARK   31  A    between atoms: _87  and  _90
REMARK   32  A    between atoms: _90  and  _91
REMARK   33  A    between atoms: _94  and  _96
REMARK   34  A    between atoms: _96  and  _97
REMARK   35  A    between atoms: _96  and  _99
REMARK   36  A    between atoms: _99  and  _100
REMARK   37  A    between atoms: _100  and  _101
REMARK   38  A    between atoms: _106  and  _108
REMARK   39  A    between atoms: _119  and  _122
REMARK   40  A    between atoms: _122  and  _123
REMARK   41  A    between atoms: _131  and  _132
REMARK   42  A    between atoms: _140  and  _142
REMARK   43  A    between atoms: _142  and  _143
REMARK   44  A    between atoms: _142  and  _145
REMARK   45  A    between atoms: _145  and  _146
REMARK   46  A    between atoms: _146  and  _147
REMARK   47  A    between atoms: _150  and  _152
REMARK   48  A    between atoms: _152  and  _153
REMARK   49  A    between atoms: _152  and  _155
REMARK   50  A    between atoms: _155  and  _156
REMARK   51  A    between atoms: _161  and  _163
REMARK   52  A    between atoms: _163  and  _164
REMARK   53  A    between atoms: _163  and  _166
REMARK   54  A    between atoms: _166  and  _167
REMARK   55  A    between atoms: _167  and  _168
REMARK   56  A    between atoms: _171  and  _173
REMARK   57  A    between atoms: _173  and  _174
REMARK   58  A    between atoms: _173  and  _176
REMARK   59  A    between atoms: _176  and  _177
REMARK   60  A    between atoms: _178  and  ZN_377
REMARK   61  A    between atoms: _182  and  _184
REMARK   62  A    between atoms: _184  and  _185
REMARK   63  A    between atoms: _184  and  _187
REMARK   64  A    between atoms: _187  and  _188
REMARK   65  A    between atoms: _191  and  _193
REMARK   66  A    between atoms: _193  and  _194
REMARK   67  A    between atoms: _193  and  _196
REMARK   68  A    between atoms: _199  and  _201
REMARK   69  A    between atoms: _201  and  _202
REMARK   70  A    between atoms: _201  and  _204
REMARK   71  A    between atoms: _204  and  _205
REMARK   72  A    between atoms: _210  and  _212
REMARK   73  A    between atoms: _212  and  _213
REMARK   74  A    between atoms: _212  and  _215
REMARK   75  A    between atoms: _215  and  _216
REMARK   76  A    between atoms: _222  and  _224
REMARK   77  A    between atoms: _224  and  _225
REMARK   78  A    between atoms: _224  and  _227
REMARK   79  A    between atoms: _230  and  _232
REMARK   80  A    between atoms: _232  and  _233
REMARK   81  A    between atoms: _232  and  _235
REMARK   82  A    between atoms: _235  and  _236
REMARK   83  A    between atoms: _239  and  _241
REMARK   84  A    between atoms: _241  and  _242
REMARK   85  A    between atoms: _245  and  _247
REMARK   86  A    between atoms: _247  and  _248
REMARK   87  A    between atoms: _247  and  _250
REMARK   88  A    between atoms: _253  and  _255
REMARK   89  A    between atoms: _255  and  _256
REMARK   90  A    between atoms: _255  and  _258
REMARK   91  A    between atoms: _258  and  _259
REMARK   92  A    between atoms: _262  and  _264
REMARK   93  A    between atoms: _264  and  _265
REMARK   94  A    between atoms: _264  and  _267
REMARK   95  A    between atoms: _267  and  _268
REMARK   96  A    between atoms: _270  and  _272
REMARK   97  A    between atoms: _272  and  _273
REMARK   98  A    between atoms: _272  and  _275
REMARK   99  A    between atoms: _275  and  _276
REMARK  100  A    between atoms: _279  and  _281
REMARK  101  A    between atoms: _281  and  _282
REMARK  102  A    between atoms: _281  and  _284
REMARK  103  A    between atoms: _284  and  _285
REMARK  104  A    between atoms: _288  and  _290
REMARK  105  A    between atoms: _290  and  _291
REMARK  106  A    between atoms: _290  and  _293
REMARK  107  A    between atoms: _293  and  _294
REMARK  108  A    between atoms: _298  and  _299
REMARK  109  A    between atoms: _305  and  _306
REMARK  110  A    between atoms: _311  and  _313
REMARK  111  A    between atoms: _313  and  _314
REMARK  112  A    between atoms: _313  and  _316
REMARK  113  A    between atoms: _316  and  _317
REMARK  114  A    between atoms: _320  and  _322
REMARK  115  A    between atoms: _322  and  _323
REMARK  116  A    between atoms: _322  and  _325
REMARK  117  A    between atoms: _325  and  _326
REMARK  118  A    between atoms: _329  and  _331
REMARK  119  A    between atoms: _331  and  _332
REMARK  120  A    between atoms: _331  and  _334
REMARK  121  A    between atoms: _336  and  _338
REMARK  122  A    between atoms: _338  and  _339
REMARK  123  A    between atoms: _338  and  _341
REMARK  124  A    between atoms: _344  and  _346
REMARK  125  A    between atoms: _346  and  _347
REMARK  126  A    between atoms: _346  and  _349
REMARK  127  A    between atoms: _349  and  _350
REMARK  128  A    between atoms: _360  and  _362
REMARK  129  A    between atoms: _362  and  _363
REMARK  130  A    between atoms: _362  and  _365
REMARK  131  A    between atoms: _365  and  _366
REMARK  132  A    between atoms: _366  and  _367
REMARK  133  A    between atoms: _367  and  _368
REMARK                            x       y       z     vdW  Elec       q    Type
REMARK                         _______ _______ _______ _____ _____    ______ ____
ROOT
ATOM      1  CA  VAL A   1      17.210  11.676  19.787  0.00  0.00    +0.133 C 
ENDROOT
BRANCH   1   2
ATOM      2  CB  VAL A   1      17.637  10.836  18.504  0.00  0.00    +0.023 C 
ATOM      3  CG2 VAL A   1      16.400  10.244  17.869  0.00  0.00    +0.002 C 
ATOM      4  CG1 VAL A   1      18.452  11.656  17.526  0.00  0.00    +0.002 C 
ENDBRANCH   1   2
BRANCH   1   5
ATOM      5  N   VAL A   1      16.153  12.718  19.408  0.00  0.00    -0.239 NA
ATOM      6  H   VAL A   1      16.084  13.070  18.432  0.00  0.00    +0.142 HD
ENDBRANCH   1   5
BRANCH   1   7
ATOM      7  C   VAL A   1      18.389  12.292  20.551  0.00  0.00    +0.224 C 
ATOM      8  O   VAL A   1      19.298  11.554  20.974  0.00  0.00    -0.287 OA
ENDBRANCH   1   7
TORSDOF 3
REMARK  Name = ../refined-set-2016/4q7w/4q7w_pocket.pdb
REMARK  133 active torsions:
REMARK  status: ('A' for Active; 'I' for Inactive)
REMARK    1  A    between atoms: _1  and  _3
REMARK    2  A    between atoms: _3  and  _4
REMARK    3  A    between atoms: _3  and  _6
REMARK    4  A    between atoms: _6  and  _7
REMARK    5  A    between atoms: _17  and  _19
REMARK    6  A    between atoms: _19  and  _20
REMARK    7  A    between atoms: _19  and  _22
REMARK    8  A    between atoms: _22  and  _23
REMARK    9  A    between atoms: _28  and  _29
REMARK   10  A    between atoms: _31  and  _33
REMARK   11  A    between atoms: _33  and  _34
REMARK   12  A    between atoms: _33  and  _36
REMARK   13  A    between atoms: _36  and  _37
REMARK   14  A    between atoms: _40  and  _41
REMARK   15  A    between atoms: _46  and  _48
REMARK   16  A    between atoms: _48  and  _49
REMARK   17  A    between atoms: _48  and  _51
REMARK   18  A    between atoms: _51  and  _52
REMARK   19  A    between atoms: _57  and  _59
REMARK   20  A    between atoms: _59  and  _60
REMARK   21  A    between atoms: _59  and  _62
REMARK   22  A    between atoms: _62  and  _63
REMARK   23  A    between atoms: _68  and  _70
REMARK   24  A    between atoms: _70  and  _71
REMARK   25  A    between atoms: _74  and  _76
REMARK   26  A    between atoms: _76  and  _77
REMARK   27  A    between atoms: _76  and  _79
REMARK   28  A    between atoms: _79  and  _80
REMARK   29  A    between atoms: _85  and  _87
REMARK   30  A    between atoms: _87  and  _88
REMARK   31  A    between atoms: _87  and  _90
REMARK   32  A    between atoms: _90  and  _91
REMARK   33  A    between atoms: _94  and  _96
REMARK   34  A    between atoms: _96  and  _97
REMARK   35  A    between atoms: _96  and  _99
REMARK   36  A    between atoms: _99  and  _100
REMARK   37  A    between atoms: _100  and  _101
REMARK   38  A    between atoms: _106  and  _108
REMARK   39  A    between atoms: _119  and  _122
REMARK   40  A    between atoms: _122  and  _123
REMARK   41  A    between atoms: _131  and  _132
REMARK   42  A    between atoms: _140  and  _142
REMARK   43  A    between atoms: _142  and  _143
REMARK   44  A    between atoms: _142  and  _145
REMARK   45  A    between atoms: _145  and  _146
REMARK   46  A    between atoms: _146  and  _147
REMARK   47  A    between atoms: _150  and  _152
REMARK   48  A    between atoms: _152  and  _153
REMARK   49  A    between atoms: _152  and  _155
REMARK   50  A    between atoms: _155  and  _156
REMARK   51  A    between atoms: _161  and  _163
REMARK   52  A    between atoms: _163  and  _164
REMARK   53  A    between atoms: _163  and  _166
REMARK   54  A    between atoms: _166  and  _167
REMARK   55  A    between atoms: _167  and  _168
REMARK   56  A    between atoms: _171  and  _173
REMARK   57  A    between atoms: _173  and  _174
REMARK   58  A    between atoms: _173  and  _176
REMARK   59  A    between atoms: _176  and  _177
REMARK   60  A    between atoms: _178  and  ZN_377
REMARK   61  A    between atoms: _182  and  _184
REMARK   62  A    between atoms: _184  and  _185
REMARK   63  A    between atoms: _184  and  _187
REMARK   64  A    between atoms: _187  and  _188
REMARK   65  A    between atoms: _191  and  _193
REMARK   66  A    between atoms: _193  and  _194
REMARK   67  A    between atoms: _193  and  _196
REMARK   68  A    between atoms: _199  and  _201
REMARK   69  A    between atoms: _201  and  _202
REMARK   70  A    between atoms: _201  and  _204
REMARK   71  A    between atoms: _204  and  _205
REMARK   72  A    between atoms: _210  and  _212
REMARK   73  A    between atoms: _212  and  _213
REMARK   74  A    between atoms: _212  and  _215
REMARK   75  A    between atoms: _215  and  _216
REMARK   76  A    between atoms: _222  and  _224
REMARK   77  A    between atoms: _224  and  _225
REMARK   78  A    between atoms: _224  and  _227
REMARK   79  A    between atoms: _230  and  _232
REMARK   80  A    between atoms: _232  and  _233
REMARK   81  A    between atoms: _232  and  _235
REMARK   82  A    between atoms: _235  and  _236
REMARK   83  A    between atoms: _239  and  _241
REMARK   84  A    between atoms: _241  and  _242
REMARK   85  A    between atoms: _245  and  _247
REMARK   86  A    between atoms: _247  and  _248
REMARK   87  A    between atoms: _247  and  _250
REMARK   88  A    between atoms: _253  and  _255
REMARK   89  A    between atoms: _255  and  _256
REMARK   90  A    between atoms: _255  and  _258
REMARK   91  A    between atoms: _258  and  _259
REMARK   92  A    between atoms: _262  and  _264
REMARK   93  A    between atoms: _264  and  _265
REMARK   94  A    between atoms: _264  and  _267
REMARK   95  A    between atoms: _267  and  _268
REMARK   96  A    between atoms: _270  and  _272
REMARK   97  A    between atoms: _272  and  _273
REMARK   98  A    between atoms: _272  and  _275
REMARK   99  A    between atoms: _275  and  _276
REMARK  100  A    between atoms: _279  and  _281
REMARK  101  A    between atoms: _281  and  _282
REMARK  102  A    between atoms: _281  and  _284
REMARK  103  A    between atoms: _284  and  _285
REMARK  104  A    between atoms: _288  and  _290
REMARK  105  A    between atoms: _290  and  _291
REMARK  106  A    between atoms: _290  and  _293
REMARK  107  A    between atoms: _293  and  _294
REMARK  108  A    between atoms: _298  and  _299
REMARK  109  A    between atoms: _305  and  _306
REMARK  110  A    between atoms: _311  and  _313
REMARK  111  A    between atoms: _313  and  _314
REMARK  112  A    between atoms: _313  and  _316
REMARK  113  A    between atoms: _316  and  _317
REMARK  114  A    between atoms: _320  and  _322
REMARK  115  A    between atoms: _322  and  _323
REMARK  116  A    between atoms: _322  and  _325
REMARK  117  A    between atoms: _325  and  _326
REMARK  118  A    between atoms: _329  and  _331
REMARK  119  A    between atoms: _331  and  _332
REMARK  120  A    between atoms: _331  and  _334
REMARK  121  A    between atoms: _336  and  _338
REMARK  122  A    between atoms: _338  and  _339
REMARK  123  A    between atoms: _338  and  _341
REMARK  124  A    between atoms: _344  and  _346
REMARK  125  A    between atoms: _346  and  _347
REMARK  126  A    between atoms: _346  and  _349
REMARK  127  A    between atoms: _349  and  _350
REMARK  128  A    between atoms: _360  and  _362
REMARK  129  A    between atoms: _362  and  _363
REMARK  130  A    between atoms: _362  and  _365
REMARK  131  A    between atoms: _365  and  _366
REMARK  132  A    between atoms: _366  and  _367
REMARK  133  A    between atoms: _367  and  _368
REMARK                            x       y       z     vdW  Elec       q    Type
REMARK                         _______ _______ _______ _____ _____    ______ ____
ROOT
ATOM      1  C   ALA A   2       8.565   4.840  20.834  0.00  0.00    +0.241 C 
ATOM      2  N   VAL A   3       8.996   3.589  21.134  0.00  0.00    -0.297 N 
ATOM      3  H   VAL A   3       9.331   3.367  22.093  0.00  0.00    +0.150 HD
ATOM      4  O   ALA A   2       8.250   5.219  19.695  0.00  0.00    -0.273 OA
ENDROOT
BRANCH   1   5
ATOM      5  CA  ALA A   2       8.674   5.869  21.940  0.00  0.00    +0.149 C 
ATOM      6  CB  ALA A   2       7.256   6.346  22.392  0.00  0.00    +0.031 C 
BRANCH   5   9
ATOM      7  C   LEU A   1      10.468   7.518  22.146  0.00  0.00    +0.238 C 
ATOM      8  O   LEU A   1      10.701   7.229  23.312  0.00  0.00    -0.274 OA
ATOM      9  N   ALA A   2       9.440   7.014  21.453  0.00  0.00    -0.297 N 
ATOM     10  H   ALA A   2       9.180   7.448  20.545  0.00  0.00    +0.150 HD
BRANCH   7  11
ATOM     11  CA  LEU A   1      11.399   8.434  21.346  0.00  0.00    +0.145 C 
BRANCH  11  12
ATOM     12  N   LEU A   1      12.043   9.397  22.236  0.00  0.00    -0.238 NA
ATOM     13  H   LEU A   1      12.602   9.074  23.051  0.00  0.00    +0.142 HD
ENDBRANCH  11  12
BRANCH  11  14
ATOM     14  CB  LEU A   1      12.416   7.554  20.593  0.00  0.00    +0.026 C 
BRANCH  14  15
ATOM     15  CG  LEU A   1      13.333   8.361  19.679  0.00  0.00    +0.002 C 
ATOM     16  CD2 LEU A   1      14.136   7.250  18.975  0.00  0.00    +0.000 C 
ATOM     17  CD1 LEU A   1      12.708   9.224  18.546  0.00  0.00    +0.000 C 
ENDBRANCH  14  15
ENDBRANCH  11  14
ENDBRANCH   7  11
ENDBRANCH   5   9
ENDBRANCH   1   5
BRANCH   2  18
ATOM     18  CA  VAL A   3       8.987   2.569  20.116  0.00  0.00    +0.149 C 
BRANCH  18  19
ATOM     19  C   VAL A   3       8.001   1.521  20.588  0.00  0.00    +0.241 C 
ATOM     20  O   VAL A   3       8.085   1.012  21.704  0.00  0.00    -0.273 OA
ATOM     21  N   LEU A   4       7.013   1.248  19.758  0.00  0.00    -0.298 N 
ATOM     22  H   LEU A   4       6.928   1.839  18.907  0.00  0.00    +0.150 HD
BRANCH  21  23
ATOM     23  CA  LEU A   4       6.047   0.205  19.932  0.00  0.00    +0.137 C 
BRANCH  23  24
ATOM     24  C   LEU A   4       6.613  -1.039  19.293  0.00  0.00    +0.227 C 
ATOM     25  O   LEU A   4       6.808  -1.115  18.082  0.00  0.00    -0.286 OA
ENDBRANCH  23  24
BRANCH  23  26
ATOM     26  CB  LEU A   4       4.662   0.607  19.319  0.00  0.00    +0.028 C 
BRANCH  26  27
ATOM     27  CG  LEU A   4       3.575  -0.406  19.533  0.00  0.00    +0.002 C 
ATOM     28  CD2 LEU A   4       3.195  -0.642  20.944  0.00  0.00    +0.000 C 
ATOM     29  CD1 LEU A   4       2.307   0.238  18.817  0.00  0.00    +0.000 C 
ENDBRANCH  26  27
ENDBRANCH  23  26
ENDBRANCH  21  23
ENDBRANCH  18  19
BRANCH  18  30
ATOM     30  CB  VAL A   3      10.364   1.996  19.844  0.00  0.00    +0.027 C 
ATOM     31  CG2 VAL A   3      11.325   3.090  19.369  0.00  0.00    +0.002 C 
ATOM     32  CG1 VAL A   3      10.219   0.954  18.633  0.00  0.00    +0.002 C 
ENDBRANCH  18  30
ENDBRANCH   2  18
TORSDOF 13
REMARK  Name = ../refined-set-2016/4q7w/4q7w_pocket.pdb
REMARK  133 active torsions:
REMARK  status: ('A' for Active; 'I' for Inactive)
REMARK    1  A    between atoms: _1  and  _3
REMARK    2  A    between atoms: _3  and  _4
REMARK    3  A    between atoms: _3  and  _6
REMARK    4  A    between atoms: _6  and  _7
REMARK    5  A    between atoms: _17  and  _19
REMARK    6  A    between atoms: _19  and  _20
REMARK    7  A    between atoms: _19  and  _22
REMARK    8  A    between atoms: _22  and  _23
REMARK    9  A    between atoms: _28  and  _29
REMARK   10  A    between atoms: _31  and  _33
REMARK   11  A    between atoms: _33  and  _34
REMARK   12  A    between atoms: _33  and  _36
REMARK   13  A    between atoms: _36  and  _37
REMARK   14  A    between atoms: _40  and  _41
REMARK   15  A    between atoms: _46  and  _48
REMARK   16  A    between atoms: _48  and  _49
REMARK   17  A    between atoms: _48  and  _51
REMARK   18  A    between atoms: _51  and  _52
REMARK   19  A    between atoms: _57  and  _59
REMARK   20  A    between atoms: _59  and  _60
REMARK   21  A    between atoms: _59  and  _62
REMARK   22  A    between atoms: _62  and  _63
REMARK   23  A    between atoms: _68  and  _70
REMARK   24  A    between atoms: _70  and  _71
REMARK   25  A    between atoms: _74  and  _76
REMARK   26  A    between atoms: _76  and  _77
REMARK   27  A    between atoms: _76  and  _79
REMARK   28  A    between atoms: _79  and  _80
REMARK   29  A    between atoms: _85  and  _87
REMARK   30  A    between atoms: _87  and  _88
REMARK   31  A    between atoms: _87  and  _90
REMARK   32  A    between atoms: _90  and  _91
REMARK   33  A    between atoms: _94  and  _96
REMARK   34  A    between atoms: _96  and  _97
REMARK   35  A    between atoms: _96  and  _99
REMARK   36  A    between atoms: _99  and  _100
REMARK   37  A    between atoms: _100  and  _101
REMARK   38  A    between atoms: _106  and  _108
REMARK   39  A    between atoms: _119  and  _122
REMARK   40  A    between atoms: _122  and  _123
REMARK   41  A    between atoms: _131  and  _132
REMARK   42  A    between atoms: _140  and  _142
REMARK   43  A    between atoms: _142  and  _143
REMARK   44  A    between atoms: _142  and  _145
REMARK   45  A    between atoms: _145  and  _146
REMARK   46  A    between atoms: _146  and  _147
REMARK   47  A    between atoms: _150  and  _152
REMARK   48  A    between atoms: _152  and  _153
REMARK   49  A    between atoms: _152  and  _155
REMARK   50  A    between atoms: _155  and  _156
REMARK   51  A    between atoms: _161  and  _163
REMARK   52  A    between atoms: _163  and  _164
REMARK   53  A    between atoms: _163  and  _166
REMARK   54  A    between atoms: _166  and  _167
REMARK   55  A    between atoms: _167  and  _168
REMARK   56  A    between atoms: _171  and  _173
REMARK   57  A    between atoms: _173  and  _174
REMARK   58  A    between atoms: _173  and  _176
REMARK   59  A    between atoms: _176  and  _177
REMARK   60  A    between atoms: _178  and  ZN_377
REMARK   61  A    between atoms: _182  and  _184
REMARK   62  A    between atoms: _184  and  _185
REMARK   63  A    between atoms: _184  and  _187
REMARK   64  A    between atoms: _187  and  _188
REMARK   65  A    between atoms: _191  and  _193
REMARK   66  A    between atoms: _193  and  _194
REMARK   67  A    between atoms: _193  and  _196
REMARK   68  A    between atoms: _199  and  _201
REMARK   69  A    between atoms: _201  and  _202
REMARK   70  A    between atoms: _201  and  _204
REMARK   71  A    between atoms: _204  and  _205
REMARK   72  A    between atoms: _210  and  _212
REMARK   73  A    between atoms: _212  and  _213
REMARK   74  A    between atoms: _212  and  _215
REMARK   75  A    between atoms: _215  and  _216
REMARK   76  A    between atoms: _222  and  _224
REMARK   77  A    between atoms: _224  and  _225
REMARK   78  A    between atoms: _224  and  _227
REMARK   79  A    between atoms: _230  and  _232
REMARK   80  A    between atoms: _232  and  _233
REMARK   81  A    between atoms: _232  and  _235
REMARK   82  A    between atoms: _235  and  _236
REMARK   83  A    between atoms: _239  and  _241
REMARK   84  A    between atoms: _241  and  _242
REMARK   85  A    between atoms: _245  and  _247
REMARK   86  A    between atoms: _247  and  _248
REMARK   87  A    between atoms: _247  and  _250
REMARK   88  A    between atoms: _253  and  _255
REMARK   89  A    between atoms: _255  and  _256
REMARK   90  A    between atoms: _255  and  _258
REMARK   91  A    between atoms: _258  and  _259
REMARK   92  A    between atoms: _262  and  _264
REMARK   93  A    between atoms: _264  and  _265
REMARK   94  A    between atoms: _264  and  _267
REMARK   95  A    between atoms: _267  and  _268
REMARK   96  A    between atoms: _270  and  _272
REMARK   97  A    between atoms: _272  and  _273
REMARK   98  A    between atoms: _272  and  _275
REMARK   99  A    between atoms: _275  and  _276
REMARK  100  A    between atoms: _279  and  _281
REMARK  101  A    between atoms: _281  and  _282
REMARK  102  A    between atoms: _281  and  _284
REMARK  103  A    between atoms: _284  and  _285
REMARK  104  A    between atoms: _288  and  _290
REMARK  105  A    between atoms: _290  and  _291
REMARK  106  A    between atoms: _290  and  _293
REMARK  107  A    between atoms: _293  and  _294
REMARK  108  A    between atoms: _298  and  _299
REMARK  109  A    between atoms: _305  and  _306
REMARK  110  A    between atoms: _311  and  _313
REMARK  111  A    between atoms: _313  and  _314
REMARK  112  A    between atoms: _313  and  _316
REMARK  113  A    between atoms: _316  and  _317
REMARK  114  A    between atoms: _320  and  _322
REMARK  115  A    between atoms: _322  and  _323
REMARK  116  A    between atoms: _322  and  _325
REMARK  117  A    between atoms: _325  and  _326
REMARK  118  A    between atoms: _329  and  _331
REMARK  119  A    between atoms: _331  and  _332
REMARK  120  A    between atoms: _331  and  _334
REMARK  121  A    between atoms: _336  and  _338
REMARK  122  A    between atoms: _338  and  _339
REMARK  123  A    between atoms: _338  and  _341
REMARK  124  A    between atoms: _344  and  _346
REMARK  125  A    between atoms: _346  and  _347
REMARK  126  A    between atoms: _346  and  _349
REMARK  127  A    between atoms: _349  and  _350
REMARK  128  A    between atoms: _360  and  _362
REMARK  129  A    between atoms: _362  and  _363
REMARK  130  A    between atoms: _362  and  _365
REMARK  131  A    between atoms: _365  and  _366
REMARK  132  A    between atoms: _366  and  _367
REMARK  133  A    between atoms: _367  and  _368
REMARK                            x       y       z     vdW  Elec       q    Type
REMARK                         _______ _______ _______ _____ _____    ______ ____
ROOT
ATOM      1  C   THR A   4      21.855   0.994  16.264  0.00  0.00    +0.246 C 
ATOM      2  O   THR A   4      21.411   1.995  16.823  0.00  0.00    -0.273 OA
ATOM      3  N   PRO A   5      23.160   0.946  15.809  0.00  0.00    -0.272 N 
ATOM      4  CA  PRO A   5      23.950   2.150  15.926  0.00  0.00    +0.152 C 
ATOM      5  CB  PRO A   5      25.219   1.786  15.126  0.00  0.00    +0.031 C 
ATOM      6  CG  PRO A   5      25.339   0.342  15.311  0.00  0.00    +0.024 C 
ATOM      7  CD  PRO A   5      23.872  -0.195  15.222  0.00  0.00    +0.094 C 
ENDROOT
BRANCH   4   8
ATOM      8  C   PRO A   5      23.173   3.362  15.355  0.00  0.00    +0.244 C 
ATOM      9  N   PRO A   6      23.198   4.496  16.003  0.00  0.00    -0.272 N 
ATOM     10  CA  PRO A   6      24.093   4.863  17.061  0.00  0.00    +0.152 C 
ATOM     11  CB  PRO A   6      24.182   6.395  16.885  0.00  0.00    +0.031 C 
ATOM     12  CG  PRO A   6      22.864   6.802  16.321  0.00  0.00    +0.024 C 
ATOM     13  CD  PRO A   6      22.491   5.681  15.430  0.00  0.00    +0.094 C 
ATOM     14  O   PRO A   5      22.572   3.266  14.214  0.00  0.00    -0.273 OA
BRANCH  10  15
ATOM     15  C   PRO A   6      23.702   4.520  18.521  0.00  0.00    +0.241 C 
ATOM     16  O   PRO A   6      24.314   4.980  19.472  0.00  0.00    -0.273 OA
ATOM     17  N   LEU A   7      22.684   3.646  18.636  0.00  0.00    -0.297 N 
ATOM     18  H   LEU A   7      22.113   3.393  17.804  0.00  0.00    +0.150 HD
BRANCH  17  19
ATOM     19  CA  LEU A   7      22.382   3.042  19.971  0.00  0.00    +0.149 C 
BRANCH  19  20
ATOM     20  C   LEU A   7      21.965   4.097  21.068  0.00  0.00    +0.241 C 
ATOM     21  O   LEU A   7      22.109   3.871  22.255  0.00  0.00    -0.273 OA
ATOM     22  N   LEU A   8      21.320   5.182  20.573  0.00  0.00    -0.298 N 
ATOM     23  H   LEU A   8      20.999   5.198  19.584  0.00  0.00    +0.150 HD
BRANCH  22  24
ATOM     24  CA  LEU A   8      21.079   6.337  21.452  0.00  0.00    +0.137 C 
BRANCH  24  25
ATOM     25  C   LEU A   8      20.034   5.939  22.547  0.00  0.00    +0.227 C 
ATOM     26  O   LEU A   8      19.014   5.282  22.287  0.00  0.00    -0.286 OA
ENDBRANCH  24  25
BRANCH  24  27
ATOM     27  CB  LEU A   8      20.537   7.547  20.619  0.00  0.00    +0.028 C 
BRANCH  27  28
ATOM     28  CG  LEU A   8      21.548   7.991  19.528  0.00  0.00    +0.002 C 
ATOM     29  CD2 LEU A   8      22.784   8.539  20.225  0.00  0.00    +0.000 C 
ATOM     30  CD1 LEU A   8      20.962   9.093  18.637  0.00  0.00    +0.000 C 
ENDBRANCH  27  28
ENDBRANCH  24  27
ENDBRANCH  22  24
ENDBRANCH  19  20
BRANCH  19  31
ATOM     31  CB  LEU A   7      23.513   2.116  20.471  0.00  0.00    +0.029 C 
BRANCH  31  32
ATOM     32  CG  LEU A   7      23.888   1.076  19.477  0.00  0.00    +0.002 C 
ATOM     33  CD2 LEU A   7      25.237   0.347  19.884  0.00  0.00    +0.000 C 
ATOM     34  CD1 LEU A   7      22.784  -0.026  19.354  0.00  0.00    +0.000 C 
ENDBRANCH  31  32
ENDBRANCH  19  31
ENDBRANCH  17  19
ENDBRANCH  10  15
ENDBRANCH   4   8
BRANCH   1  35
ATOM     35  CA  THR A   4      21.001  -0.225  15.998  0.00  0.00    +0.176 C 
BRANCH  35  38
ATOM     36  C   THR A   3      19.952  -1.438  17.830  0.00  0.00    +0.243 C 
ATOM     37  O   THR A   3      20.611  -2.459  17.601  0.00  0.00    -0.273 OA
ATOM     38  N   THR A   4      20.029  -0.324  17.091  0.00  0.00    -0.295 N 
ATOM     39  H   THR A   4      19.396   0.476  17.294  0.00  0.00    +0.150 HD
BRANCH  36  40
ATOM     40  CA  THR A   3      18.988  -1.362  19.030  0.00  0.00    +0.176 C 
BRANCH  40  43
ATOM     41  C   LEU A   2      18.624   0.902  19.812  0.00  0.00    +0.241 C 
ATOM     42  O   LEU A   2      19.650   0.777  20.570  0.00  0.00    -0.273 OA
ATOM     43  N   THR A   3      18.231  -0.065  19.032  0.00  0.00    -0.295 N 
ATOM     44  H   THR A   3      17.402   0.060  18.417  0.00  0.00    +0.150 HD
BRANCH  41  45
ATOM     45  CA  LEU A   2      17.870   2.213  19.706  0.00  0.00    +0.149 C 
BRANCH  45  48
ATOM     46  C   SER A   1      17.325   2.202  22.115  0.00  0.00    +0.241 C 
ATOM     47  O   SER A   1      16.586   1.180  21.945  0.00  0.00    -0.274 OA
ATOM     48  N   LEU A   2      17.870   2.835  21.068  0.00  0.00    -0.297 N 
ATOM     49  H   LEU A   2      18.300   3.772  21.203  0.00  0.00    +0.150 HD
BRANCH  46  50
ATOM     50  CA  SER A   1      17.792   2.632  23.518  0.00  0.00    +0.174 C 
BRANCH  50  51
ATOM     51  N   SER A   1      17.012   1.969  24.533  0.00  0.00    -0.236 NA
ATOM     52  H   SER A   1      16.787   0.957  24.445  0.00  0.00    +0.142 HD
ENDBRANCH  50  51
BRANCH  50  53
ATOM     53  CB  SER A   1      19.330   2.250  23.616  0.00  0.00    +0.163 C 
BRANCH  53  54
ATOM     54  OG  SER A   1      19.535   0.862  23.278  0.00  0.00    -0.380 OA
ATOM     55  H   SER A   1      19.223   0.699  22.353  0.00  0.00    +0.211 HD
ENDBRANCH  53  54
ENDBRANCH  50  53
ENDBRANCH  46  50
ENDBRANCH  45  48
BRANCH  45  56
ATOM     56  CB  LEU A   2      18.690   3.053  18.698  0.00  0.00    +0.029 C 
BRANCH  56  57
ATOM     57  CG  LEU A   2      18.354   4.512  18.538  0.00  0.00    +0.002 C 
ATOM     58  CD2 LEU A   2      16.994   4.966  18.684  0.00  0.00    +0.000 C 
ATOM     59  CD1 LEU A   2      18.930   4.953  17.098  0.00  0.00    +0.000 C 
ENDBRANCH  56  57
ENDBRANCH  45  56
ENDBRANCH  41  45
ENDBRANCH  40  43
BRANCH  40  60
ATOM     60  CB  THR A   3      17.993  -2.518  18.897  0.00  0.00    +0.137 C 
ATOM     61  CG2 THR A   3      16.931  -2.440  19.990  0.00  0.00    +0.034 C 
BRANCH  60  62
ATOM     62  OG1 THR A   3      17.348  -2.436  17.617  0.00  0.00    -0.382 OA
ATOM     63  HG1 THR A   3      16.703  -3.182  17.525  0.00  0.00    +0.210 HD
ENDBRANCH  60  62
ENDBRANCH  40  60
ENDBRANCH  36  40
ENDBRANCH  35  38
BRANCH  35  64
ATOM     64  CB  THR A   4      20.256   0.022  14.673  0.00  0.00    +0.137 C 
ATOM     65  CG2 THR A   4      19.479  -1.202  14.265  0.00  0.00    +0.034 C 
BRANCH  64  66
ATOM     66  OG1 THR A   4      19.278   1.064  14.841  0.00  0.00    -0.382 OA
ATOM     67  HG1 THR A   4      19.731   1.899  15.119  0.00  0.00    +0.210 HD
ENDBRANCH  64  66
ENDBRANCH  35  64
ENDBRANCH   1  35
TORSDOF 26
REMARK  Name = ../refined-set-2016/4q7w/4q7w_pocket.pdb
REMARK  133 active torsions:
REMARK  status: ('A' for Active; 'I' for Inactive)
REMARK    1  A    between atoms: _1  and  _3
REMARK    2  A    between atoms: _3  and  _4
REMARK    3  A    between atoms: _3  and  _6
REMARK    4  A    between atoms: _6  and  _7
REMARK    5  A    between atoms: _17  and  _19
REMARK    6  A    between atoms: _19  and  _20
REMARK    7  A    between atoms: _19  and  _22
REMARK    8  A    between atoms: _22  and  _23
REMARK    9  A    between atoms: _28  and  _29
REMARK   10  A    between atoms: _31  and  _33
REMARK   11  A    between atoms: _33  and  _34
REMARK   12  A    between atoms: _33  and  _36
REMARK   13  A    between atoms: _36  and  _37
REMARK   14  A    between atoms: _40  and  _41
REMARK   15  A    between atoms: _46  and  _48
REMARK   16  A    between atoms: _48  and  _49
REMARK   17  A    between atoms: _48  and  _51
REMARK   18  A    between atoms: _51  and  _52
REMARK   19  A    between atoms: _57  and  _59
REMARK   20  A    between atoms: _59  and  _60
REMARK   21  A    between atoms: _59  and  _62
REMARK   22  A    between atoms: _62  and  _63
REMARK   23  A    between atoms: _68  and  _70
REMARK   24  A    between atoms: _70  and  _71
REMARK   25  A    between atoms: _74  and  _76
REMARK   26  A    between atoms: _76  and  _77
REMARK   27  A    between atoms: _76  and  _79
REMARK   28  A    between atoms: _79  and  _80
REMARK   29  A    between atoms: _85  and  _87
REMARK   30  A    between atoms: _87  and  _88
REMARK   31  A    between atoms: _87  and  _90
REMARK   32  A    between atoms: _90  and  _91
REMARK   33  A    between atoms: _94  and  _96
REMARK   34  A    between atoms: _96  and  _97
REMARK   35  A    between atoms: _96  and  _99
REMARK   36  A    between atoms: _99  and  _100
REMARK   37  A    between atoms: _100  and  _101
REMARK   38  A    between atoms: _106  and  _108
REMARK   39  A    between atoms: _119  and  _122
REMARK   40  A    between atoms: _122  and  _123
REMARK   41  A    between atoms: _131  and  _132
REMARK   42  A    between atoms: _140  and  _142
REMARK   43  A    between atoms: _142  and  _143
REMARK   44  A    between atoms: _142  and  _145
REMARK   45  A    between atoms: _145  and  _146
REMARK   46  A    between atoms: _146  and  _147
REMARK   47  A    between atoms: _150  and  _152
REMARK   48  A    between atoms: _152  and  _153
REMARK   49  A    between atoms: _152  and  _155
REMARK   50  A    between atoms: _155  and  _156
REMARK   51  A    between atoms: _161  and  _163
REMARK   52  A    between atoms: _163  and  _164
REMARK   53  A    between atoms: _163  and  _166
REMARK   54  A    between atoms: _166  and  _167
REMARK   55  A    between atoms: _167  and  _168
REMARK   56  A    between atoms: _171  and  _173
REMARK   57  A    between atoms: _173  and  _174
REMARK   58  A    between atoms: _173  and  _176
REMARK   59  A    between atoms: _176  and  _177
REMARK   60  A    between atoms: _178  and  ZN_377
REMARK   61  A    between atoms: _182  and  _184
REMARK   62  A    between atoms: _184  and  _185
REMARK   63  A    between atoms: _184  and  _187
REMARK   64  A    between atoms: _187  and  _188
REMARK   65  A    between atoms: _191  and  _193
REMARK   66  A    between atoms: _193  and  _194
REMARK   67  A    between atoms: _193  and  _196
REMARK   68  A    between atoms: _199  and  _201
REMARK   69  A    between atoms: _201  and  _202
REMARK   70  A    between atoms: _201  and  _204
REMARK   71  A    between atoms: _204  and  _205
REMARK   72  A    between atoms: _210  and  _212
REMARK   73  A    between atoms: _212  and  _213
REMARK   74  A    between atoms: _212  and  _215
REMARK   75  A    between atoms: _215  and  _216
REMARK   76  A    between atoms: _222  and  _224
REMARK   77  A    between atoms: _224  and  _225
REMARK   78  A    between atoms: _224  and  _227
REMARK   79  A    between atoms: _230  and  _232
REMARK   80  A    between atoms: _232  and  _233
REMARK   81  A    between atoms: _232  and  _235
REMARK   82  A    between atoms: _235  and  _236
REMARK   83  A    between atoms: _239  and  _241
REMARK   84  A    between atoms: _241  and  _242
REMARK   85  A    between atoms: _245  and  _247
REMARK   86  A    between atoms: _247  and  _248
REMARK   87  A    between atoms: _247  and  _250
REMARK   88  A    between atoms: _253  and  _255
REMARK   89  A    between atoms: _255  and  _256
REMARK   90  A    between atoms: _255  and  _258
REMARK   91  A    between atoms: _258  and  _259
REMARK   92  A    between atoms: _262  and  _264
REMARK   93  A    between atoms: _264  and  _265
REMARK   94  A    between atoms: _264  and  _267
REMARK   95  A    between atoms: _267  and  _268
REMARK   96  A    between atoms: _270  and  _272
REMARK   97  A    between atoms: _272  and  _273
REMARK   98  A    between atoms: _272  and  _275
REMARK   99  A    between atoms: _275  and  _276
REMARK  100  A    between atoms: _279  and  _281
REMARK  101  A    between atoms: _281  and  _282
REMARK  102  A    between atoms: _281  and  _284
REMARK  103  A    between atoms: _284  and  _285
REMARK  104  A    between atoms: _288  and  _290
REMARK  105  A    between atoms: _290  and  _291
REMARK  106  A    between atoms: _290  and  _293
REMARK  107  A    between atoms: _293  and  _294
REMARK  108  A    between atoms: _298  and  _299
REMARK  109  A    between atoms: _305  and  _306
REMARK  110  A    between atoms: _311  and  _313
REMARK  111  A    between atoms: _313  and  _314
REMARK  112  A    between atoms: _313  and  _316
REMARK  113  A    between atoms: _316  and  _317
REMARK  114  A    between atoms: _320  and  _322
REMARK  115  A    between atoms: _322  and  _323
REMARK  116  A    between atoms: _322  and  _325
REMARK  117  A    between atoms: _325  and  _326
REMARK  118  A    between atoms: _329  and  _331
REMARK  119  A    between atoms: _331  and  _332
REMARK  120  A    between atoms: _331  and  _334
REMARK  121  A    between atoms: _336  and  _338
REMARK  122  A    between atoms: _338  and  _339
REMARK  123  A    between atoms: _338  and  _341
REMARK  124  A    between atoms: _344  and  _346
REMARK  125  A    between atoms: _346  and  _347
REMARK  126  A    between atoms: _346  and  _349
REMARK  127  A    between atoms: _349  and  _350
REMARK  128  A    between atoms: _360  and  _362
REMARK  129  A    between atoms: _362  and  _363
REMARK  130  A    between atoms: _362  and  _365
REMARK  131  A    between atoms: _365  and  _366
REMARK  132  A    between atoms: _366  and  _367
REMARK  133  A    between atoms: _367  and  _368
REMARK                            x       y       z     vdW  Elec       q    Type
REMARK                         _______ _______ _______ _____ _____    ______ ____
ROOT
ATOM      1  C   CYS A   1      14.902   7.331  24.076  0.00  0.00    +0.239 C 
ATOM      2  N   VAL A   2      14.831   6.024  24.253  0.00  0.00    -0.298 N 
ATOM      3  H   VAL A   2      15.636   5.505  24.659  0.00  0.00    +0.150 HD
ATOM      4  O   CYS A   1      13.922   8.051  23.898  0.00  0.00    -0.274 OA
ENDROOT
BRANCH   1   5
ATOM      5  CA  CYS A   1      16.259   7.956  24.027  0.00  0.00    +0.156 C 
BRANCH   5   6
ATOM      6  N   CYS A   1      17.323   6.957  24.141  0.00  0.00    -0.237 NA
ATOM      7  H   CYS A   1      17.334   6.160  23.473  0.00  0.00    +0.142 HD
ENDBRANCH   5   6
BRANCH   5   8
ATOM      8  CB  CYS A   1      16.246   8.696  22.668  0.00  0.00    +0.095 C 
ATOM      9  SG  CYS A   1      17.712   9.077  21.920  0.00  0.00    -0.080 S 
ENDBRANCH   5   8
ENDBRANCH   1   5
BRANCH   2  10
ATOM     10  CA  VAL A   2      13.600   5.308  23.870  0.00  0.00    +0.137 C 
BRANCH  10  11
ATOM     11  CB  VAL A   2      13.921   3.986  23.096  0.00  0.00    +0.026 C 
ATOM     12  CG2 VAL A   2      12.574   3.318  22.730  0.00  0.00    +0.002 C 
ATOM     13  CG1 VAL A   2      14.603   4.342  21.784  0.00  0.00    +0.002 C 
ENDBRANCH  10  11
BRANCH  10  14
ATOM     14  C   VAL A   2      12.786   4.858  25.114  0.00  0.00    +0.227 C 
ATOM     15  O   VAL A   2      13.326   4.188  25.997  0.00  0.00    -0.286 OA
ENDBRANCH  10  14
ENDBRANCH   2  10
TORSDOF 6
REMARK  Name = ../refined-set-2016/4q7w/4q7w_pocket.pdb
REMARK  133 active torsions:
REMARK  status: ('A' for Active; 'I' for Inactive)
REMARK    1  A    between atoms: _1  and  _3
REMARK    2  A    between atoms: _3  and  _4
REMARK    3  A    between atoms: _3  and  _6
REMARK    4  A    between atoms: _6  and  _7
REMARK    5  A    between atoms: _17  and  _19
REMARK    6  A    between atoms: _19  and  _20
REMARK    7  A    between atoms: _19  and  _22
REMARK    8  A    between atoms: _22  and  _23
REMARK    9  A    between atoms: _28  and  _29
REMARK   10  A    between atoms: _31  and  _33
REMARK   11  A    between atoms: _33  and  _34
REMARK   12  A    between atoms: _33  and  _36
REMARK   13  A    between atoms: _36  and  _37
REMARK   14  A    between atoms: _40  and  _41
REMARK   15  A    between atoms: _46  and  _48
REMARK   16  A    between atoms: _48  and  _49
REMARK   17  A    between atoms: _48  and  _51
REMARK   18  A    between atoms: _51  and  _52
REMARK   19  A    between atoms: _57  and  _59
REMARK   20  A    between atoms: _59  and  _60
REMARK   21  A    between atoms: _59  and  _62
REMARK   22  A    between atoms: _62  and  _63
REMARK   23  A    between atoms: _68  and  _70
REMARK   24  A    between atoms: _70  and  _71
REMARK   25  A    between atoms: _74  and  _76
REMARK   26  A    between atoms: _76  and  _77
REMARK   27  A    between atoms: _76  and  _79
REMARK   28  A    between atoms: _79  and  _80
REMARK   29  A    between atoms: _85  and  _87
REMARK   30  A    between atoms: _87  and  _88
REMARK   31  A    between atoms: _87  and  _90
REMARK   32  A    between atoms: _90  and  _91
REMARK   33  A    between atoms: _94  and  _96
REMARK   34  A    between atoms: _96  and  _97
REMARK   35  A    between atoms: _96  and  _99
REMARK   36  A    between atoms: _99  and  _100
REMARK   37  A    between atoms: _100  and  _101
REMARK   38  A    between atoms: _106  and  _108
REMARK   39  A    between atoms: _119  and  _122
REMARK   40  A    between atoms: _122  and  _123
REMARK   41  A    between atoms: _131  and  _132
REMARK   42  A    between atoms: _140  and  _142
REMARK   43  A    between atoms: _142  and  _143
REMARK   44  A    between atoms: _142  and  _145
REMARK   45  A    between atoms: _145  and  _146
REMARK   46  A    between atoms: _146  and  _147
REMARK   47  A    between atoms: _150  and  _152
REMARK   48  A    between atoms: _152  and  _153
REMARK   49  A    between atoms: _152  and  _155
REMARK   50  A    between atoms: _155  and  _156
REMARK   51  A    between atoms: _161  and  _163
REMARK   52  A    between atoms: _163  and  _164
REMARK   53  A    between atoms: _163  and  _166
REMARK   54  A    between atoms: _166  and  _167
REMARK   55  A    between atoms: _167  and  _168
REMARK   56  A    between atoms: _171  and  _173
REMARK   57  A    between atoms: _173  and  _174
REMARK   58  A    between atoms: _173  and  _176
REMARK   59  A    between atoms: _176  and  _177
REMARK   60  A    between atoms: _178  and  ZN_377
REMARK   61  A    between atoms: _182  and  _184
REMARK   62  A    between atoms: _184  and  _185
REMARK   63  A    between atoms: _184  and  _187
REMARK   64  A    between atoms: _187  and  _188
REMARK   65  A    between atoms: _191  and  _193
REMARK   66  A    between atoms: _193  and  _194
REMARK   67  A    between atoms: _193  and  _196
REMARK   68  A    between atoms: _199  and  _201
REMARK   69  A    between atoms: _201  and  _202
REMARK   70  A    between atoms: _201  and  _204
REMARK   71  A    between atoms: _204  and  _205
REMARK   72  A    between atoms: _210  and  _212
REMARK   73  A    between atoms: _212  and  _213
REMARK   74  A    between atoms: _212  and  _215
REMARK   75  A    between atoms: _215  and  _216
REMARK   76  A    between atoms: _222  and  _224
REMARK   77  A    between atoms: _224  and  _225
REMARK   78  A    between atoms: _224  and  _227
REMARK   79  A    between atoms: _230  and  _232
REMARK   80  A    between atoms: _232  and  _233
REMARK   81  A    between atoms: _232  and  _235
REMARK   82  A    between atoms: _235  and  _236
REMARK   83  A    between atoms: _239  and  _241
REMARK   84  A    between atoms: _241  and  _242
REMARK   85  A    between atoms: _245  and  _247
REMARK   86  A    between atoms: _247  and  _248
REMARK   87  A    between atoms: _247  and  _250
REMARK   88  A    between atoms: _253  and  _255
REMARK   89  A    between atoms: _255  and  _256
REMARK   90  A    between atoms: _255  and  _258
REMARK   91  A    between atoms: _258  and  _259
REMARK   92  A    between atoms: _262  and  _264
REMARK   93  A    between atoms: _264  and  _265
REMARK   94  A    between atoms: _264  and  _267
REMARK   95  A    between atoms: _267  and  _268
REMARK   96  A    between atoms: _270  and  _272
REMARK   97  A    between atoms: _272  and  _273
REMARK   98  A    between atoms: _272  and  _275
REMARK   99  A    between atoms: _275  and  _276
REMARK  100  A    between atoms: _279  and  _281
REMARK  101  A    between atoms: _281  and  _282
REMARK  102  A    between atoms: _281  and  _284
REMARK  103  A    between atoms: _284  and  _285
REMARK  104  A    between atoms: _288  and  _290
REMARK  105  A    between atoms: _290  and  _291
REMARK  106  A    between atoms: _290  and  _293
REMARK  107  A    between atoms: _293  and  _294
REMARK  108  A    between atoms: _298  and  _299
REMARK  109  A    between atoms: _305  and  _306
REMARK  110  A    between atoms: _311  and  _313
REMARK  111  A    between atoms: _313  and  _314
REMARK  112  A    between atoms: _313  and  _316
REMARK  113  A    between atoms: _316  and  _317
REMARK  114  A    between atoms: _320  and  _322
REMARK  115  A    between atoms: _322  and  _323
REMARK  116  A    between atoms: _322  and  _325
REMARK  117  A    between atoms: _325  and  _326
REMARK  118  A    between atoms: _329  and  _331
REMARK  119  A    between atoms: _331  and  _332
REMARK  120  A    between atoms: _331  and  _334
REMARK  121  A    between atoms: _336  and  _338
REMARK  122  A    between atoms: _338  and  _339
REMARK  123  A    between atoms: _338  and  _341
REMARK  124  A    between atoms: _344  and  _346
REMARK  125  A    between atoms: _346  and  _347
REMARK  126  A    between atoms: _346  and  _349
REMARK  127  A    between atoms: _349  and  _350
REMARK  128  A    between atoms: _360  and  _362
REMARK  129  A    between atoms: _362  and  _363
REMARK  130  A    between atoms: _362  and  _365
REMARK  131  A    between atoms: _365  and  _366
REMARK  132  A    between atoms: _366  and  _367
REMARK  133  A    between atoms: _367  and  _368
REMARK                            x       y       z     vdW  Elec       q    Type
REMARK                         _______ _______ _______ _____ _____    ______ ____
ROOT
ATOM      1  CG  TRP A   1      12.082  -0.132  24.211  0.00  0.00    -0.002 A 
ATOM      2  CD1 TRP A   1      13.357   0.398  24.439  0.00  0.00    +0.068 A 
ATOM      3  NE1 TRP A   1      14.068   0.412  23.237  0.00  0.00    -0.352 N 
ATOM      4  HE1 TRP A   1      15.003   0.844  23.094  0.00  0.00    +0.166 HD
ATOM      5  CE2 TRP A   1      13.322  -0.247  22.259  0.00  0.00    +0.056 A 
ATOM      6  CZ2 TRP A   1      13.583  -0.486  20.938  0.00  0.00    +0.017 A 
ATOM      7  CH2 TRP A   1      12.621  -1.109  20.191  0.00  0.00    +0.001 A 
ATOM      8  CZ3 TRP A   1      11.351  -1.446  20.744  0.00  0.00    +0.000 A 
ATOM      9  CE3 TRP A   1      11.089  -1.177  22.038  0.00  0.00    +0.001 A 
ATOM     10  CD2 TRP A   1      12.069  -0.570  22.836  0.00  0.00    +0.013 A 
ENDROOT
BRANCH   1  11
ATOM     11  CB  TRP A   1      10.931  -0.244  25.174  0.00  0.00    +0.053 C 
BRANCH  11  12
ATOM     12  CA  TRP A   1       9.934   0.927  24.947  0.00  0.00    +0.137 C 
BRANCH  12  13
ATOM     13  N   TRP A   1      10.399   2.121  25.669  0.00  0.00    -0.239 NA
ATOM     14  H   TRP A   1      11.021   2.014  26.496  0.00  0.00    +0.142 HD
ENDBRANCH  12  13
BRANCH  12  15
ATOM     15  C   TRP A   1       8.605   0.504  25.467  0.00  0.00    +0.224 C 
ATOM     16  O   TRP A   1       8.355   0.464  26.657  0.00  0.00    -0.287 OA
ENDBRANCH  12  15
ENDBRANCH  11  12
ENDBRANCH   1  11
TORSDOF 4
REMARK  Name = ../refined-set-2016/4q7w/4q7w_pocket.pdb
REMARK  133 active torsions:
REMARK  status: ('A' for Active; 'I' for Inactive)
REMARK    1  A    between atoms: _1  and  _3
REMARK    2  A    between atoms: _3  and  _4
REMARK    3  A    between atoms: _3  and  _6
REMARK    4  A    between atoms: _6  and  _7
REMARK    5  A    between atoms: _17  and  _19
REMARK    6  A    between atoms: _19  and  _20
REMARK    7  A    between atoms: _19  and  _22
REMARK    8  A    between atoms: _22  and  _23
REMARK    9  A    between atoms: _28  and  _29
REMARK   10  A    between atoms: _31  and  _33
REMARK   11  A    between atoms: _33  and  _34
REMARK   12  A    between atoms: _33  and  _36
REMARK   13  A    between atoms: _36  and  _37
REMARK   14  A    between atoms: _40  and  _41
REMARK   15  A    between atoms: _46  and  _48
REMARK   16  A    between atoms: _48  and  _49
REMARK   17  A    between atoms: _48  and  _51
REMARK   18  A    between atoms: _51  and  _52
REMARK   19  A    between atoms: _57  and  _59
REMARK   20  A    between atoms: _59  and  _60
REMARK   21  A    between atoms: _59  and  _62
REMARK   22  A    between atoms: _62  and  _63
REMARK   23  A    between atoms: _68  and  _70
REMARK   24  A    between atoms: _70  and  _71
REMARK   25  A    between atoms: _74  and  _76
REMARK   26  A    between atoms: _76  and  _77
REMARK   27  A    between atoms: _76  and  _79
REMARK   28  A    between atoms: _79  and  _80
REMARK   29  A    between atoms: _85  and  _87
REMARK   30  A    between atoms: _87  and  _88
REMARK   31  A    between atoms: _87  and  _90
REMARK   32  A    between atoms: _90  and  _91
REMARK   33  A    between atoms: _94  and  _96
REMARK   34  A    between atoms: _96  and  _97
REMARK   35  A    between atoms: _96  and  _99
REMARK   36  A    between atoms: _99  and  _100
REMARK   37  A    between atoms: _100  and  _101
REMARK   38  A    between atoms: _106  and  _108
REMARK   39  A    between atoms: _119  and  _122
REMARK   40  A    between atoms: _122  and  _123
REMARK   41  A    between atoms: _131  and  _132
REMARK   42  A    between atoms: _140  and  _142
REMARK   43  A    between atoms: _142  and  _143
REMARK   44  A    between atoms: _142  and  _145
REMARK   45  A    between atoms: _145  and  _146
REMARK   46  A    between atoms: _146  and  _147
REMARK   47  A    between atoms: _150  and  _152
REMARK   48  A    between atoms: _152  and  _153
REMARK   49  A    between atoms: _152  and  _155
REMARK   50  A    between atoms: _155  and  _156
REMARK   51  A    between atoms: _161  and  _163
REMARK   52  A    between atoms: _163  and  _164
REMARK   53  A    between atoms: _163  and  _166
REMARK   54  A    between atoms: _166  and  _167
REMARK   55  A    between atoms: _167  and  _168
REMARK   56  A    between atoms: _171  and  _173
REMARK   57  A    between atoms: _173  and  _174
REMARK   58  A    between atoms: _173  and  _176
REMARK   59  A    between atoms: _176  and  _177
REMARK   60  A    between atoms: _178  and  ZN_377
REMARK   61  A    between atoms: _182  and  _184
REMARK   62  A    between atoms: _184  and  _185
REMARK   63  A    between atoms: _184  and  _187
REMARK   64  A    between atoms: _187  and  _188
REMARK   65  A    between atoms: _191  and  _193
REMARK   66  A    between atoms: _193  and  _194
REMARK   67  A    between atoms: _193  and  _196
REMARK   68  A    between atoms: _199  and  _201
REMARK   69  A    between atoms: _201  and  _202
REMARK   70  A    between atoms: _201  and  _204
REMARK   71  A    between atoms: _204  and  _205
REMARK   72  A    between atoms: _210  and  _212
REMARK   73  A    between atoms: _212  and  _213
REMARK   74  A    between atoms: _212  and  _215
REMARK   75  A    between atoms: _215  and  _216
REMARK   76  A    between atoms: _222  and  _224
REMARK   77  A    between atoms: _224  and  _225
REMARK   78  A    between atoms: _224  and  _227
REMARK   79  A    between atoms: _230  and  _232
REMARK   80  A    between atoms: _232  and  _233
REMARK   81  A    between atoms: _232  and  _235
REMARK   82  A    between atoms: _235  and  _236
REMARK   83  A    between atoms: _239  and  _241
REMARK   84  A    between atoms: _241  and  _242
REMARK   85  A    between atoms: _245  and  _247
REMARK   86  A    between atoms: _247  and  _248
REMARK   87  A    between atoms: _247  and  _250
REMARK   88  A    between atoms: _253  and  _255
REMARK   89  A    between atoms: _255  and  _256
REMARK   90  A    between atoms: _255  and  _258
REMARK   91  A    between atoms: _258  and  _259
REMARK   92  A    between atoms: _262  and  _264
REMARK   93  A    between atoms: _264  and  _265
REMARK   94  A    between atoms: _264  and  _267
REMARK   95  A    between atoms: _267  and  _268
REMARK   96  A    between atoms: _270  and  _272
REMARK   97  A    between atoms: _272  and  _273
REMARK   98  A    between atoms: _272  and  _275
REMARK   99  A    between atoms: _275  and  _276
REMARK  100  A    between atoms: _279  and  _281
REMARK  101  A    between atoms: _281  and  _282
REMARK  102  A    between atoms: _281  and  _284
REMARK  103  A    between atoms: _284  and  _285
REMARK  104  A    between atoms: _288  and  _290
REMARK  105  A    between atoms: _290  and  _291
REMARK  106  A    between atoms: _290  and  _293
REMARK  107  A    between atoms: _293  and  _294
REMARK  108  A    between atoms: _298  and  _299
REMARK  109  A    between atoms: _305  and  _306
REMARK  110  A    between atoms: _311  and  _313
REMARK  111  A    between atoms: _313  and  _314
REMARK  112  A    between atoms: _313  and  _316
REMARK  113  A    between atoms: _316  and  _317
REMARK  114  A    between atoms: _320  and  _322
REMARK  115  A    between atoms: _322  and  _323
REMARK  116  A    between atoms: _322  and  _325
REMARK  117  A    between atoms: _325  and  _326
REMARK  118  A    between atoms: _329  and  _331
REMARK  119  A    between atoms: _331  and  _332
REMARK  120  A    between atoms: _331  and  _334
REMARK  121  A    between atoms: _336  and  _338
REMARK  122  A    between atoms: _338  and  _339
REMARK  123  A    between atoms: _338  and  _341
REMARK  124  A    between atoms: _344  and  _346
REMARK  125  A    between atoms: _346  and  _347
REMARK  126  A    between atoms: _346  and  _349
REMARK  127  A    between atoms: _349  and  _350
REMARK  128  A    between atoms: _360  and  _362
REMARK  129  A    between atoms: _362  and  _363
REMARK  130  A    between atoms: _362  and  _365
REMARK  131  A    between atoms: _365  and  _366
REMARK  132  A    between atoms: _366  and  _367
REMARK  133  A    between atoms: _367  and  _368
REMARK                            x       y       z     vdW  Elec       q    Type
REMARK                         _______ _______ _______ _____ _____    ______ ____
ROOT
ATOM      1  NE  ARG A   1      23.215  -4.058  21.176  0.00  0.00    +0.330 N 
ATOM      2  CZ  ARG A   1      23.343  -3.040  22.018  0.00  0.00    +0.000 C 
ATOM      3  NH2 ARG A   1      24.617  -2.771  22.434  0.00  0.00    +0.330 N 
ATOM      4 HH21 ARG A   1      24.794  -1.987  23.094  0.00  0.00    +0.000 HD
ATOM      5 HH22 ARG A   1      25.409  -3.350  22.090  0.00  0.00    +0.000 HD
ATOM      6  NH1 ARG A   1      22.371  -2.192  22.332  0.00  0.00    +0.330 N 
ATOM      7 HH11 ARG A   1      22.553  -1.418  23.002  0.00  0.00    +0.000 HD
ATOM      8 HH12 ARG A   1      21.428  -2.302  21.908  0.00  0.00    +0.000 HD
ATOM      9  HE  ARG A   1      24.050  -4.634  20.946  0.00  0.00    +0.000 HD
ENDROOT
BRANCH   1  10
ATOM     10  CD  ARG A   1      21.900  -4.397  20.550  0.00  0.00    +0.000 C 
BRANCH  10  11
ATOM     11  CG  ARG A   1      22.050  -5.741  19.864  0.00  0.00    +0.000 C 
BRANCH  11  12
ATOM     12  CB  ARG A   1      20.979  -5.984  18.817  0.00  0.00    +0.000 C 
BRANCH  12  13
ATOM     13  CA  ARG A   1      20.826  -7.437  18.363  0.00  0.00    +0.000 C 
BRANCH  13  14
ATOM     14  N   ARG A   1      19.865  -7.541  17.267  0.00  0.00    +0.000 NA
ATOM     15  H   ARG A   1      19.055  -6.889  17.250  0.00  0.00    +0.000 HD
ENDBRANCH  13  14
BRANCH  13  16
ATOM     16  C   ARG A   1      20.332  -8.328  19.517  0.00  0.00    +0.000 C 
ATOM     17  O   ARG A   1      19.140  -8.322  19.837  0.00  0.00    +0.000 OA
ENDBRANCH  13  16
ENDBRANCH  12  13
ENDBRANCH  11  12
ENDBRANCH  10  11
ENDBRANCH   1  10
TORSDOF 6
REMARK  Name = ../refined-set-2016/4q7w/4q7w_pocket.pdb
REMARK  133 active torsions:
REMARK  status: ('A' for Active; 'I' for Inactive)
REMARK    1  A    between atoms: _1  and  _3
REMARK    2  A    between atoms: _3  and  _4
REMARK    3  A    between atoms: _3  and  _6
REMARK    4  A    between atoms: _6  and  _7
REMARK    5  A    between atoms: _17  and  _19
REMARK    6  A    between atoms: _19  and  _20
REMARK    7  A    between atoms: _19  and  _22
REMARK    8  A    between atoms: _22  and  _23
REMARK    9  A    between atoms: _28  and  _29
REMARK   10  A    between atoms: _31  and  _33
REMARK   11  A    between atoms: _33  and  _34
REMARK   12  A    between atoms: _33  and  _36
REMARK   13  A    between atoms: _36  and  _37
REMARK   14  A    between atoms: _40  and  _41
REMARK   15  A    between atoms: _46  and  _48
REMARK   16  A    between atoms: _48  and  _49
REMARK   17  A    between atoms: _48  and  _51
REMARK   18  A    between atoms: _51  and  _52
REMARK   19  A    between atoms: _57  and  _59
REMARK   20  A    between atoms: _59  and  _60
REMARK   21  A    between atoms: _59  and  _62
REMARK   22  A    between atoms: _62  and  _63
REMARK   23  A    between atoms: _68  and  _70
REMARK   24  A    between atoms: _70  and  _71
REMARK   25  A    between atoms: _74  and  _76
REMARK   26  A    between atoms: _76  and  _77
REMARK   27  A    between atoms: _76  and  _79
REMARK   28  A    between atoms: _79  and  _80
REMARK   29  A    between atoms: _85  and  _87
REMARK   30  A    between atoms: _87  and  _88
REMARK   31  A    between atoms: _87  and  _90
REMARK   32  A    between atoms: _90  and  _91
REMARK   33  A    between atoms: _94  and  _96
REMARK   34  A    between atoms: _96  and  _97
REMARK   35  A    between atoms: _96  and  _99
REMARK   36  A    between atoms: _99  and  _100
REMARK   37  A    between atoms: _100  and  _101
REMARK   38  A    between atoms: _106  and  _108
REMARK   39  A    between atoms: _119  and  _122
REMARK   40  A    between atoms: _122  and  _123
REMARK   41  A    between atoms: _131  and  _132
REMARK   42  A    between atoms: _140  and  _142
REMARK   43  A    between atoms: _142  and  _143
REMARK   44  A    between atoms: _142  and  _145
REMARK   45  A    between atoms: _145  and  _146
REMARK   46  A    between atoms: _146  and  _147
REMARK   47  A    between atoms: _150  and  _152
REMARK   48  A    between atoms: _152  and  _153
REMARK   49  A    between atoms: _152  and  _155
REMARK   50  A    between atoms: _155  and  _156
REMARK   51  A    between atoms: _161  and  _163
REMARK   52  A    between atoms: _163  and  _164
REMARK   53  A    between atoms: _163  and  _166
REMARK   54  A    between atoms: _166  and  _167
REMARK   55  A    between atoms: _167  and  _168
REMARK   56  A    between atoms: _171  and  _173
REMARK   57  A    between atoms: _173  and  _174
REMARK   58  A    between atoms: _173  and  _176
REMARK   59  A    between atoms: _176  and  _177
REMARK   60  A    between atoms: _178  and  ZN_377
REMARK   61  A    between atoms: _182  and  _184
REMARK   62  A    between atoms: _184  and  _185
REMARK   63  A    between atoms: _184  and  _187
REMARK   64  A    between atoms: _187  and  _188
REMARK   65  A    between atoms: _191  and  _193
REMARK   66  A    between atoms: _193  and  _194
REMARK   67  A    between atoms: _193  and  _196
REMARK   68  A    between atoms: _199  and  _201
REMARK   69  A    between atoms: _201  and  _202
REMARK   70  A    between atoms: _201  and  _204
REMARK   71  A    between atoms: _204  and  _205
REMARK   72  A    between atoms: _210  and  _212
REMARK   73  A    between atoms: _212  and  _213
REMARK   74  A    between atoms: _212  and  _215
REMARK   75  A    between atoms: _215  and  _216
REMARK   76  A    between atoms: _222  and  _224
REMARK   77  A    between atoms: _224  and  _225
REMARK   78  A    between atoms: _224  and  _227
REMARK   79  A    between atoms: _230  and  _232
REMARK   80  A    between atoms: _232  and  _233
REMARK   81  A    between atoms: _232  and  _235
REMARK   82  A    between atoms: _235  and  _236
REMARK   83  A    between atoms: _239  and  _241
REMARK   84  A    between atoms: _241  and  _242
REMARK   85  A    between atoms: _245  and  _247
REMARK   86  A    between atoms: _247  and  _248
REMARK   87  A    between atoms: _247  and  _250
REMARK   88  A    between atoms: _253  and  _255
REMARK   89  A    between atoms: _255  and  _256
REMARK   90  A    between atoms: _255  and  _258
REMARK   91  A    between atoms: _258  and  _259
REMARK   92  A    between atoms: _262  and  _264
REMARK   93  A    between atoms: _264  and  _265
REMARK   94  A    between atoms: _264  and  _267
REMARK   95  A    between atoms: _267  and  _268
REMARK   96  A    between atoms: _270  and  _272
REMARK   97  A    between atoms: _272  and  _273
REMARK   98  A    between atoms: _272  and  _275
REMARK   99  A    between atoms: _275  and  _276
REMARK  100  A    between atoms: _279  and  _281
REMARK  101  A    between atoms: _281  and  _282
REMARK  102  A    between atoms: _281  and  _284
REMARK  103  A    between atoms: _284  and  _285
REMARK  104  A    between atoms: _288  and  _290
REMARK  105  A    between atoms: _290  and  _291
REMARK  106  A    between atoms: _290  and  _293
REMARK  107  A    between atoms: _293  and  _294
REMARK  108  A    between atoms: _298  and  _299
REMARK  109  A    between atoms: _305  and  _306
REMARK  110  A    between atoms: _311  and  _313
REMARK  111  A    between atoms: _313  and  _314
REMARK  112  A    between atoms: _313  and  _316
REMARK  113  A    between atoms: _316  and  _317
REMARK  114  A    between atoms: _320  and  _322
REMARK  115  A    between atoms: _322  and  _323
REMARK  116  A    between atoms: _322  and  _325
REMARK  117  A    between atoms: _325  and  _326
REMARK  118  A    between atoms: _329  and  _331
REMARK  119  A    between atoms: _331  and  _332
REMARK  120  A    between atoms: _331  and  _334
REMARK  121  A    between atoms: _336  and  _338
REMARK  122  A    between atoms: _338  and  _339
REMARK  123  A    between atoms: _338  and  _341
REMARK  124  A    between atoms: _344  and  _346
REMARK  125  A    between atoms: _346  and  _347
REMARK  126  A    between atoms: _346  and  _349
REMARK  127  A    between atoms: _349  and  _350
REMARK  128  A    between atoms: _360  and  _362
REMARK  129  A    between atoms: _362  and  _363
REMARK  130  A    between atoms: _362  and  _365
REMARK  131  A    between atoms: _365  and  _366
REMARK  132  A    between atoms: _366  and  _367
REMARK  133  A    between atoms: _367  and  _368
REMARK                            x       y       z     vdW  Elec       q    Type
REMARK                         _______ _______ _______ _____ _____    ______ ____
ROOT
ATOM      1  O   HOH     1      16.595  -0.714  11.997  0.00  0.00    +0.000 OA
ENDROOT
TORSDOF 0
REMARK  Name = ../refined-set-2016/4q7w/4q7w_pocket.pdb
REMARK  133 active torsions:
REMARK  status: ('A' for Active; 'I' for Inactive)
REMARK    1  A    between atoms: _1  and  _3
REMARK    2  A    between atoms: _3  and  _4
REMARK    3  A    between atoms: _3  and  _6
REMARK    4  A    between atoms: _6  and  _7
REMARK    5  A    between atoms: _17  and  _19
REMARK    6  A    between atoms: _19  and  _20
REMARK    7  A    between atoms: _19  and  _22
REMARK    8  A    between atoms: _22  and  _23
REMARK    9  A    between atoms: _28  and  _29
REMARK   10  A    between atoms: _31  and  _33
REMARK   11  A    between atoms: _33  and  _34
REMARK   12  A    between atoms: _33  and  _36
REMARK   13  A    between atoms: _36  and  _37
REMARK   14  A    between atoms: _40  and  _41
REMARK   15  A    between atoms: _46  and  _48
REMARK   16  A    between atoms: _48  and  _49
REMARK   17  A    between atoms: _48  and  _51
REMARK   18  A    between atoms: _51  and  _52
REMARK   19  A    between atoms: _57  and  _59
REMARK   20  A    between atoms: _59  and  _60
REMARK   21  A    between atoms: _59  and  _62
REMARK   22  A    between atoms: _62  and  _63
REMARK   23  A    between atoms: _68  and  _70
REMARK   24  A    between atoms: _70  and  _71
REMARK   25  A    between atoms: _74  and  _76
REMARK   26  A    between atoms: _76  and  _77
REMARK   27  A    between atoms: _76  and  _79
REMARK   28  A    between atoms: _79  and  _80
REMARK   29  A    between atoms: _85  and  _87
REMARK   30  A    between atoms: _87  and  _88
REMARK   31  A    between atoms: _87  and  _90
REMARK   32  A    between atoms: _90  and  _91
REMARK   33  A    between atoms: _94  and  _96
REMARK   34  A    between atoms: _96  and  _97
REMARK   35  A    between atoms: _96  and  _99
REMARK   36  A    between atoms: _99  and  _100
REMARK   37  A    between atoms: _100  and  _101
REMARK   38  A    between atoms: _106  and  _108
REMARK   39  A    between atoms: _119  and  _122
REMARK   40  A    between atoms: _122  and  _123
REMARK   41  A    between atoms: _131  and  _132
REMARK   42  A    between atoms: _140  and  _142
REMARK   43  A    between atoms: _142  and  _143
REMARK   44  A    between atoms: _142  and  _145
REMARK   45  A    between atoms: _145  and  _146
REMARK   46  A    between atoms: _146  and  _147
REMARK   47  A    between atoms: _150  and  _152
REMARK   48  A    between atoms: _152  and  _153
REMARK   49  A    between atoms: _152  and  _155
REMARK   50  A    between atoms: _155  and  _156
REMARK   51  A    between atoms: _161  and  _163
REMARK   52  A    between atoms: _163  and  _164
REMARK   53  A    between atoms: _163  and  _166
REMARK   54  A    between atoms: _166  and  _167
REMARK   55  A    between atoms: _167  and  _168
REMARK   56  A    between atoms: _171  and  _173
REMARK   57  A    between atoms: _173  and  _174
REMARK   58  A    between atoms: _173  and  _176
REMARK   59  A    between atoms: _176  and  _177
REMARK   60  A    between atoms: _178  and  ZN_377
REMARK   61  A    between atoms: _182  and  _184
REMARK   62  A    between atoms: _184  and  _185
REMARK   63  A    between atoms: _184  and  _187
REMARK   64  A    between atoms: _187  and  _188
REMARK   65  A    between atoms: _191  and  _193
REMARK   66  A    between atoms: _193  and  _194
REMARK   67  A    between atoms: _193  and  _196
REMARK   68  A    between atoms: _199  and  _201
REMARK   69  A    between atoms: _201  and  _202
REMARK   70  A    between atoms: _201  and  _204
REMARK   71  A    between atoms: _204  and  _205
REMARK   72  A    between atoms: _210  and  _212
REMARK   73  A    between atoms: _212  and  _213
REMARK   74  A    between atoms: _212  and  _215
REMARK   75  A    between atoms: _215  and  _216
REMARK   76  A    between atoms: _222  and  _224
REMARK   77  A    between atoms: _224  and  _225
REMARK   78  A    between atoms: _224  and  _227
REMARK   79  A    between atoms: _230  and  _232
REMARK   80  A    between atoms: _232  and  _233
REMARK   81  A    between atoms: _232  and  _235
REMARK   82  A    between atoms: _235  and  _236
REMARK   83  A    between atoms: _239  and  _241
REMARK   84  A    between atoms: _241  and  _242
REMARK   85  A    between atoms: _245  and  _247
REMARK   86  A    between atoms: _247  and  _248
REMARK   87  A    between atoms: _247  and  _250
REMARK   88  A    between atoms: _253  and  _255
REMARK   89  A    between atoms: _255  and  _256
REMARK   90  A    between atoms: _255  and  _258
REMARK   91  A    between atoms: _258  and  _259
REMARK   92  A    between atoms: _262  and  _264
REMARK   93  A    between atoms: _264  and  _265
REMARK   94  A    between atoms: _264  and  _267
REMARK   95  A    between atoms: _267  and  _268
REMARK   96  A    between atoms: _270  and  _272
REMARK   97  A    between atoms: _272  and  _273
REMARK   98  A    between atoms: _272  and  _275
REMARK   99  A    between atoms: _275  and  _276
REMARK  100  A    between atoms: _279  and  _281
REMARK  101  A    between atoms: _281  and  _282
REMARK  102  A    between atoms: _281  and  _284
REMARK  103  A    between atoms: _284  and  _285
REMARK  104  A    between atoms: _288  and  _290
REMARK  105  A    between atoms: _290  and  _291
REMARK  106  A    between atoms: _290  and  _293
REMARK  107  A    between atoms: _293  and  _294
REMARK  108  A    between atoms: _298  and  _299
REMARK  109  A    between atoms: _305  and  _306
REMARK  110  A    between atoms: _311  and  _313
REMARK  111  A    between atoms: _313  and  _314
REMARK  112  A    between atoms: _313  and  _316
REMARK  113  A    between atoms: _316  and  _317
REMARK  114  A    between atoms: _320  and  _322
REMARK  115  A    between atoms: _322  and  _323
REMARK  116  A    between atoms: _322  and  _325
REMARK  117  A    between atoms: _325  and  _326
REMARK  118  A    between atoms: _329  and  _331
REMARK  119  A    between atoms: _331  and  _332
REMARK  120  A    between atoms: _331  and  _334
REMARK  121  A    between atoms: _336  and  _338
REMARK  122  A    between atoms: _338  and  _339
REMARK  123  A    between atoms: _338  and  _341
REMARK  124  A    between atoms: _344  and  _346
REMARK  125  A    between atoms: _346  and  _347
REMARK  126  A    between atoms: _346  and  _349
REMARK  127  A    between atoms: _349  and  _350
REMARK  128  A    between atoms: _360  and  _362
REMARK  129  A    between atoms: _362  and  _363
REMARK  130  A    between atoms: _362  and  _365
REMARK  131  A    between atoms: _365  and  _366
REMARK  132  A    between atoms: _366  and  _367
REMARK  133  A    between atoms: _367  and  _368
REMARK                            x       y       z     vdW  Elec       q    Type
REMARK                         _______ _______ _______ _____ _____    ______ ____
ROOT
ATOM      1  O   HOH     1      18.616  -3.266  11.336  0.00  0.00    +0.000 OA
ENDROOT
TORSDOF 0
REMARK  Name = ../refined-set-2016/4q7w/4q7w_pocket.pdb
REMARK  133 active torsions:
REMARK  status: ('A' for Active; 'I' for Inactive)
REMARK    1  A    between atoms: _1  and  _3
REMARK    2  A    between atoms: _3  and  _4
REMARK    3  A    between atoms: _3  and  _6
REMARK    4  A    between atoms: _6  and  _7
REMARK    5  A    between atoms: _17  and  _19
REMARK    6  A    between atoms: _19  and  _20
REMARK    7  A    between atoms: _19  and  _22
REMARK    8  A    between atoms: _22  and  _23
REMARK    9  A    between atoms: _28  and  _29
REMARK   10  A    between atoms: _31  and  _33
REMARK   11  A    between atoms: _33  and  _34
REMARK   12  A    between atoms: _33  and  _36
REMARK   13  A    between atoms: _36  and  _37
REMARK   14  A    between atoms: _40  and  _41
REMARK   15  A    between atoms: _46  and  _48
REMARK   16  A    between atoms: _48  and  _49
REMARK   17  A    between atoms: _48  and  _51
REMARK   18  A    between atoms: _51  and  _52
REMARK   19  A    between atoms: _57  and  _59
REMARK   20  A    between atoms: _59  and  _60
REMARK   21  A    between atoms: _59  and  _62
REMARK   22  A    between atoms: _62  and  _63
REMARK   23  A    between atoms: _68  and  _70
REMARK   24  A    between atoms: _70  and  _71
REMARK   25  A    between atoms: _74  and  _76
REMARK   26  A    between atoms: _76  and  _77
REMARK   27  A    between atoms: _76  and  _79
REMARK   28  A    between atoms: _79  and  _80
REMARK   29  A    between atoms: _85  and  _87
REMARK   30  A    between atoms: _87  and  _88
REMARK   31  A    between atoms: _87  and  _90
REMARK   32  A    between atoms: _90  and  _91
REMARK   33  A    between atoms: _94  and  _96
REMARK   34  A    between atoms: _96  and  _97
REMARK   35  A    between atoms: _96  and  _99
REMARK   36  A    between atoms: _99  and  _100
REMARK   37  A    between atoms: _100  and  _101
REMARK   38  A    between atoms: _106  and  _108
REMARK   39  A    between atoms: _119  and  _122
REMARK   40  A    between atoms: _122  and  _123
REMARK   41  A    between atoms: _131  and  _132
REMARK   42  A    between atoms: _140  and  _142
REMARK   43  A    between atoms: _142  and  _143
REMARK   44  A    between atoms: _142  and  _145
REMARK   45  A    between atoms: _145  and  _146
REMARK   46  A    between atoms: _146  and  _147
REMARK   47  A    between atoms: _150  and  _152
REMARK   48  A    between atoms: _152  and  _153
REMARK   49  A    between atoms: _152  and  _155
REMARK   50  A    between atoms: _155  and  _156
REMARK   51  A    between atoms: _161  and  _163
REMARK   52  A    between atoms: _163  and  _164
REMARK   53  A    between atoms: _163  and  _166
REMARK   54  A    between atoms: _166  and  _167
REMARK   55  A    between atoms: _167  and  _168
REMARK   56  A    between atoms: _171  and  _173
REMARK   57  A    between atoms: _173  and  _174
REMARK   58  A    between atoms: _173  and  _176
REMARK   59  A    between atoms: _176  and  _177
REMARK   60  A    between atoms: _178  and  ZN_377
REMARK   61  A    between atoms: _182  and  _184
REMARK   62  A    between atoms: _184  and  _185
REMARK   63  A    between atoms: _184  and  _187
REMARK   64  A    between atoms: _187  and  _188
REMARK   65  A    between atoms: _191  and  _193
REMARK   66  A    between atoms: _193  and  _194
REMARK   67  A    between atoms: _193  and  _196
REMARK   68  A    between atoms: _199  and  _201
REMARK   69  A    between atoms: _201  and  _202
REMARK   70  A    between atoms: _201  and  _204
REMARK   71  A    between atoms: _204  and  _205
REMARK   72  A    between atoms: _210  and  _212
REMARK   73  A    between atoms: _212  and  _213
REMARK   74  A    between atoms: _212  and  _215
REMARK   75  A    between atoms: _215  and  _216
REMARK   76  A    between atoms: _222  and  _224
REMARK   77  A    between atoms: _224  and  _225
REMARK   78  A    between atoms: _224  and  _227
REMARK   79  A    between atoms: _230  and  _232
REMARK   80  A    between atoms: _232  and  _233
REMARK   81  A    between atoms: _232  and  _235
REMARK   82  A    between atoms: _235  and  _236
REMARK   83  A    between atoms: _239  and  _241
REMARK   84  A    between atoms: _241  and  _242
REMARK   85  A    between atoms: _245  and  _247
REMARK   86  A    between atoms: _247  and  _248
REMARK   87  A    between atoms: _247  and  _250
REMARK   88  A    between atoms: _253  and  _255
REMARK   89  A    between atoms: _255  and  _256
REMARK   90  A    between atoms: _255  and  _258
REMARK   91  A    between atoms: _258  and  _259
REMARK   92  A    between atoms: _262  and  _264
REMARK   93  A    between atoms: _264  and  _265
REMARK   94  A    between atoms: _264  and  _267
REMARK   95  A    between atoms: _267  and  _268
REMARK   96  A    between atoms: _270  and  _272
REMARK   97  A    between atoms: _272  and  _273
REMARK   98  A    between atoms: _272  and  _275
REMARK   99  A    between atoms: _275  and  _276
REMARK  100  A    between atoms: _279  and  _281
REMARK  101  A    between atoms: _281  and  _282
REMARK  102  A    between atoms: _281  and  _284
REMARK  103  A    between atoms: _284  and  _285
REMARK  104  A    between atoms: _288  and  _290
REMARK  105  A    between atoms: _290  and  _291
REMARK  106  A    between atoms: _290  and  _293
REMARK  107  A    between atoms: _293  and  _294
REMARK  108  A    between atoms: _298  and  _299
REMARK  109  A    between atoms: _305  and  _306
REMARK  110  A    between atoms: _311  and  _313
REMARK  111  A    between atoms: _313  and  _314
REMARK  112  A    between atoms: _313  and  _316
REMARK  113  A    between atoms: _316  and  _317
REMARK  114  A    between atoms: _320  and  _322
REMARK  115  A    between atoms: _322  and  _323
REMARK  116  A    between atoms: _322  and  _325
REMARK  117  A    between atoms: _325  and  _326
REMARK  118  A    between atoms: _329  and  _331
REMARK  119  A    between atoms: _331  and  _332
REMARK  120  A    between atoms: _331  and  _334
REMARK  121  A    between atoms: _336  and  _338
REMARK  122  A    between atoms: _338  and  _339
REMARK  123  A    between atoms: _338  and  _341
REMARK  124  A    between atoms: _344  and  _346
REMARK  125  A    between atoms: _346  and  _347
REMARK  126  A    between atoms: _346  and  _349
REMARK  127  A    between atoms: _349  and  _350
REMARK  128  A    between atoms: _360  and  _362
REMARK  129  A    between atoms: _362  and  _363
REMARK  130  A    between atoms: _362  and  _365
REMARK  131  A    between atoms: _365  and  _366
REMARK  132  A    between atoms: _366  and  _367
REMARK  133  A    between atoms: _367  and  _368
REMARK                            x       y       z     vdW  Elec       q    Type
REMARK                         _______ _______ _______ _____ _____    ______ ____
ROOT
ATOM      1  O   HOH     1      18.547  -0.293  10.356  0.00  0.00    +0.000 OA
ENDROOT
TORSDOF 0
REMARK  Name = ../refined-set-2016/4q7w/4q7w_pocket.pdb
REMARK  133 active torsions:
REMARK  status: ('A' for Active; 'I' for Inactive)
REMARK    1  A    between atoms: _1  and  _3
REMARK    2  A    between atoms: _3  and  _4
REMARK    3  A    between atoms: _3  and  _6
REMARK    4  A    between atoms: _6  and  _7
REMARK    5  A    between atoms: _17  and  _19
REMARK    6  A    between atoms: _19  and  _20
REMARK    7  A    between atoms: _19  and  _22
REMARK    8  A    between atoms: _22  and  _23
REMARK    9  A    between atoms: _28  and  _29
REMARK   10  A    between atoms: _31  and  _33
REMARK   11  A    between atoms: _33  and  _34
REMARK   12  A    between atoms: _33  and  _36
REMARK   13  A    between atoms: _36  and  _37
REMARK   14  A    between atoms: _40  and  _41
REMARK   15  A    between atoms: _46  and  _48
REMARK   16  A    between atoms: _48  and  _49
REMARK   17  A    between atoms: _48  and  _51
REMARK   18  A    between atoms: _51  and  _52
REMARK   19  A    between atoms: _57  and  _59
REMARK   20  A    between atoms: _59  and  _60
REMARK   21  A    between atoms: _59  and  _62
REMARK   22  A    between atoms: _62  and  _63
REMARK   23  A    between atoms: _68  and  _70
REMARK   24  A    between atoms: _70  and  _71
REMARK   25  A    between atoms: _74  and  _76
REMARK   26  A    between atoms: _76  and  _77
REMARK   27  A    between atoms: _76  and  _79
REMARK   28  A    between atoms: _79  and  _80
REMARK   29  A    between atoms: _85  and  _87
REMARK   30  A    between atoms: _87  and  _88
REMARK   31  A    between atoms: _87  and  _90
REMARK   32  A    between atoms: _90  and  _91
REMARK   33  A    between atoms: _94  and  _96
REMARK   34  A    between atoms: _96  and  _97
REMARK   35  A    between atoms: _96  and  _99
REMARK   36  A    between atoms: _99  and  _100
REMARK   37  A    between atoms: _100  and  _101
REMARK   38  A    between atoms: _106  and  _108
REMARK   39  A    between atoms: _119  and  _122
REMARK   40  A    between atoms: _122  and  _123
REMARK   41  A    between atoms: _131  and  _132
REMARK   42  A    between atoms: _140  and  _142
REMARK   43  A    between atoms: _142  and  _143
REMARK   44  A    between atoms: _142  and  _145
REMARK   45  A    between atoms: _145  and  _146
REMARK   46  A    between atoms: _146  and  _147
REMARK   47  A    between atoms: _150  and  _152
REMARK   48  A    between atoms: _152  and  _153
REMARK   49  A    between atoms: _152  and  _155
REMARK   50  A    between atoms: _155  and  _156
REMARK   51  A    between atoms: _161  and  _163
REMARK   52  A    between atoms: _163  and  _164
REMARK   53  A    between atoms: _163  and  _166
REMARK   54  A    between atoms: _166  and  _167
REMARK   55  A    between atoms: _167  and  _168
REMARK   56  A    between atoms: _171  and  _173
REMARK   57  A    between atoms: _173  and  _174
REMARK   58  A    between atoms: _173  and  _176
REMARK   59  A    between atoms: _176  and  _177
REMARK   60  A    between atoms: _178  and  ZN_377
REMARK   61  A    between atoms: _182  and  _184
REMARK   62  A    between atoms: _184  and  _185
REMARK   63  A    between atoms: _184  and  _187
REMARK   64  A    between atoms: _187  and  _188
REMARK   65  A    between atoms: _191  and  _193
REMARK   66  A    between atoms: _193  and  _194
REMARK   67  A    between atoms: _193  and  _196
REMARK   68  A    between atoms: _199  and  _201
REMARK   69  A    between atoms: _201  and  _202
REMARK   70  A    between atoms: _201  and  _204
REMARK   71  A    between atoms: _204  and  _205
REMARK   72  A    between atoms: _210  and  _212
REMARK   73  A    between atoms: _212  and  _213
REMARK   74  A    between atoms: _212  and  _215
REMARK   75  A    between atoms: _215  and  _216
REMARK   76  A    between atoms: _222  and  _224
REMARK   77  A    between atoms: _224  and  _225
REMARK   78  A    between atoms: _224  and  _227
REMARK   79  A    between atoms: _230  and  _232
REMARK   80  A    between atoms: _232  and  _233
REMARK   81  A    between atoms: _232  and  _235
REMARK   82  A    between atoms: _235  and  _236
REMARK   83  A    between atoms: _239  and  _241
REMARK   84  A    between atoms: _241  and  _242
REMARK   85  A    between atoms: _245  and  _247
REMARK   86  A    between atoms: _247  and  _248
REMARK   87  A    between atoms: _247  and  _250
REMARK   88  A    between atoms: _253  and  _255
REMARK   89  A    between atoms: _255  and  _256
REMARK   90  A    between atoms: _255  and  _258
REMARK   91  A    between atoms: _258  and  _259
REMARK   92  A    between atoms: _262  and  _264
REMARK   93  A    between atoms: _264  and  _265
REMARK   94  A    between atoms: _264  and  _267
REMARK   95  A    between atoms: _267  and  _268
REMARK   96  A    between atoms: _270  and  _272
REMARK   97  A    between atoms: _272  and  _273
REMARK   98  A    between atoms: _272  and  _275
REMARK   99  A    between atoms: _275  and  _276
REMARK  100  A    between atoms: _279  and  _281
REMARK  101  A    between atoms: _281  and  _282
REMARK  102  A    between atoms: _281  and  _284
REMARK  103  A    between atoms: _284  and  _285
REMARK  104  A    between atoms: _288  and  _290
REMARK  105  A    between atoms: _290  and  _291
REMARK  106  A    between atoms: _290  and  _293
REMARK  107  A    between atoms: _293  and  _294
REMARK  108  A    between atoms: _298  and  _299
REMARK  109  A    between atoms: _305  and  _306
REMARK  110  A    between atoms: _311  and  _313
REMARK  111  A    between atoms: _313  and  _314
REMARK  112  A    between atoms: _313  and  _316
REMARK  113  A    between atoms: _316  and  _317
REMARK  114  A    between atoms: _320  and  _322
REMARK  115  A    between atoms: _322  and  _323
REMARK  116  A    between atoms: _322  and  _325
REMARK  117  A    between atoms: _325  and  _326
REMARK  118  A    between atoms: _329  and  _331
REMARK  119  A    between atoms: _331  and  _332
REMARK  120  A    between atoms: _331  and  _334
REMARK  121  A    between atoms: _336  and  _338
REMARK  122  A    between atoms: _338  and  _339
REMARK  123  A    between atoms: _338  and  _341
REMARK  124  A    between atoms: _344  and  _346
REMARK  125  A    between atoms: _346  and  _347
REMARK  126  A    between atoms: _346  and  _349
REMARK  127  A    between atoms: _349  and  _350
REMARK  128  A    between atoms: _360  and  _362
REMARK  129  A    between atoms: _362  and  _363
REMARK  130  A    between atoms: _362  and  _365
REMARK  131  A    between atoms: _365  and  _366
REMARK  132  A    between atoms: _366  and  _367
REMARK  133  A    between atoms: _367  and  _368
REMARK                            x       y       z     vdW  Elec       q    Type
REMARK                         _______ _______ _______ _____ _____    ______ ____
ROOT
ATOM      1  O   HOH     1      15.225   1.436  10.650  0.00  0.00    +0.000 OA
ENDROOT
TORSDOF 0
REMARK  Name = ../refined-set-2016/4q7w/4q7w_pocket.pdb
REMARK  133 active torsions:
REMARK  status: ('A' for Active; 'I' for Inactive)
REMARK    1  A    between atoms: _1  and  _3
REMARK    2  A    between atoms: _3  and  _4
REMARK    3  A    between atoms: _3  and  _6
REMARK    4  A    between atoms: _6  and  _7
REMARK    5  A    between atoms: _17  and  _19
REMARK    6  A    between atoms: _19  and  _20
REMARK    7  A    between atoms: _19  and  _22
REMARK    8  A    between atoms: _22  and  _23
REMARK    9  A    between atoms: _28  and  _29
REMARK   10  A    between atoms: _31  and  _33
REMARK   11  A    between atoms: _33  and  _34
REMARK   12  A    between atoms: _33  and  _36
REMARK   13  A    between atoms: _36  and  _37
REMARK   14  A    between atoms: _40  and  _41
REMARK   15  A    between atoms: _46  and  _48
REMARK   16  A    between atoms: _48  and  _49
REMARK   17  A    between atoms: _48  and  _51
REMARK   18  A    between atoms: _51  and  _52
REMARK   19  A    between atoms: _57  and  _59
REMARK   20  A    between atoms: _59  and  _60
REMARK   21  A    between atoms: _59  and  _62
REMARK   22  A    between atoms: _62  and  _63
REMARK   23  A    between atoms: _68  and  _70
REMARK   24  A    between atoms: _70  and  _71
REMARK   25  A    between atoms: _74  and  _76
REMARK   26  A    between atoms: _76  and  _77
REMARK   27  A    between atoms: _76  and  _79
REMARK   28  A    between atoms: _79  and  _80
REMARK   29  A    between atoms: _85  and  _87
REMARK   30  A    between atoms: _87  and  _88
REMARK   31  A    between atoms: _87  and  _90
REMARK   32  A    between atoms: _90  and  _91
REMARK   33  A    between atoms: _94  and  _96
REMARK   34  A    between atoms: _96  and  _97
REMARK   35  A    between atoms: _96  and  _99
REMARK   36  A    between atoms: _99  and  _100
REMARK   37  A    between atoms: _100  and  _101
REMARK   38  A    between atoms: _106  and  _108
REMARK   39  A    between atoms: _119  and  _122
REMARK   40  A    between atoms: _122  and  _123
REMARK   41  A    between atoms: _131  and  _132
REMARK   42  A    between atoms: _140  and  _142
REMARK   43  A    between atoms: _142  and  _143
REMARK   44  A    between atoms: _142  and  _145
REMARK   45  A    between atoms: _145  and  _146
REMARK   46  A    between atoms: _146  and  _147
REMARK   47  A    between atoms: _150  and  _152
REMARK   48  A    between atoms: _152  and  _153
REMARK   49  A    between atoms: _152  and  _155
REMARK   50  A    between atoms: _155  and  _156
REMARK   51  A    between atoms: _161  and  _163
REMARK   52  A    between atoms: _163  and  _164
REMARK   53  A    between atoms: _163  and  _166
REMARK   54  A    between atoms: _166  and  _167
REMARK   55  A    between atoms: _167  and  _168
REMARK   56  A    between atoms: _171  and  _173
REMARK   57  A    between atoms: _173  and  _174
REMARK   58  A    between atoms: _173  and  _176
REMARK   59  A    between atoms: _176  and  _177
REMARK   60  A    between atoms: _178  and  ZN_377
REMARK   61  A    between atoms: _182  and  _184
REMARK   62  A    between atoms: _184  and  _185
REMARK   63  A    between atoms: _184  and  _187
REMARK   64  A    between atoms: _187  and  _188
REMARK   65  A    between atoms: _191  and  _193
REMARK   66  A    between atoms: _193  and  _194
REMARK   67  A    between atoms: _193  and  _196
REMARK   68  A    between atoms: _199  and  _201
REMARK   69  A    between atoms: _201  and  _202
REMARK   70  A    between atoms: _201  and  _204
REMARK   71  A    between atoms: _204  and  _205
REMARK   72  A    between atoms: _210  and  _212
REMARK   73  A    between atoms: _212  and  _213
REMARK   74  A    between atoms: _212  and  _215
REMARK   75  A    between atoms: _215  and  _216
REMARK   76  A    between atoms: _222  and  _224
REMARK   77  A    between atoms: _224  and  _225
REMARK   78  A    between atoms: _224  and  _227
REMARK   79  A    between atoms: _230  and  _232
REMARK   80  A    between atoms: _232  and  _233
REMARK   81  A    between atoms: _232  and  _235
REMARK   82  A    between atoms: _235  and  _236
REMARK   83  A    between atoms: _239  and  _241
REMARK   84  A    between atoms: _241  and  _242
REMARK   85  A    between atoms: _245  and  _247
REMARK   86  A    between atoms: _247  and  _248
REMARK   87  A    between atoms: _247  and  _250
REMARK   88  A    between atoms: _253  and  _255
REMARK   89  A    between atoms: _255  and  _256
REMARK   90  A    between atoms: _255  and  _258
REMARK   91  A    between atoms: _258  and  _259
REMARK   92  A    between atoms: _262  and  _264
REMARK   93  A    between atoms: _264  and  _265
REMARK   94  A    between atoms: _264  and  _267
REMARK   95  A    between atoms: _267  and  _268
REMARK   96  A    between atoms: _270  and  _272
REMARK   97  A    between atoms: _272  and  _273
REMARK   98  A    between atoms: _272  and  _275
REMARK   99  A    between atoms: _275  and  _276
REMARK  100  A    between atoms: _279  and  _281
REMARK  101  A    between atoms: _281  and  _282
REMARK  102  A    between atoms: _281  and  _284
REMARK  103  A    between atoms: _284  and  _285
REMARK  104  A    between atoms: _288  and  _290
REMARK  105  A    between atoms: _290  and  _291
REMARK  106  A    between atoms: _290  and  _293
REMARK  107  A    between atoms: _293  and  _294
REMARK  108  A    between atoms: _298  and  _299
REMARK  109  A    between atoms: _305  and  _306
REMARK  110  A    between atoms: _311  and  _313
REMARK  111  A    between atoms: _313  and  _314
REMARK  112  A    between atoms: _313  and  _316
REMARK  113  A    between atoms: _316  and  _317
REMARK  114  A    between atoms: _320  and  _322
REMARK  115  A    between atoms: _322  and  _323
REMARK  116  A    between atoms: _322  and  _325
REMARK  117  A    between atoms: _325  and  _326
REMARK  118  A    between atoms: _329  and  _331
REMARK  119  A    between atoms: _331  and  _332
REMARK  120  A    between atoms: _331  and  _334
REMARK  121  A    between atoms: _336  and  _338
REMARK  122  A    between atoms: _338  and  _339
REMARK  123  A    between atoms: _338  and  _341
REMARK  124  A    between atoms: _344  and  _346
REMARK  125  A    between atoms: _346  and  _347
REMARK  126  A    between atoms: _346  and  _349
REMARK  127  A    between atoms: _349  and  _350
REMARK  128  A    between atoms: _360  and  _362
REMARK  129  A    between atoms: _362  and  _363
REMARK  130  A    between atoms: _362  and  _365
REMARK  131  A    between atoms: _365  and  _366
REMARK  132  A    between atoms: _366  and  _367
REMARK  133  A    between atoms: _367  and  _368
REMARK                            x       y       z     vdW  Elec       q    Type
REMARK                         _______ _______ _______ _____ _____    ______ ____
ROOT
ATOM      1  O   HOH     1      19.955   3.388  13.676  0.00  0.00    +0.000 OA
ENDROOT
TORSDOF 0
REMARK  Name = ../refined-set-2016/4q7w/4q7w_pocket.pdb
REMARK  133 active torsions:
REMARK  status: ('A' for Active; 'I' for Inactive)
REMARK    1  A    between atoms: _1  and  _3
REMARK    2  A    between atoms: _3  and  _4
REMARK    3  A    between atoms: _3  and  _6
REMARK    4  A    between atoms: _6  and  _7
REMARK    5  A    between atoms: _17  and  _19
REMARK    6  A    between atoms: _19  and  _20
REMARK    7  A    between atoms: _19  and  _22
REMARK    8  A    between atoms: _22  and  _23
REMARK    9  A    between atoms: _28  and  _29
REMARK   10  A    between atoms: _31  and  _33
REMARK   11  A    between atoms: _33  and  _34
REMARK   12  A    between atoms: _33  and  _36
REMARK   13  A    between atoms: _36  and  _37
REMARK   14  A    between atoms: _40  and  _41
REMARK   15  A    between atoms: _46  and  _48
REMARK   16  A    between atoms: _48  and  _49
REMARK   17  A    between atoms: _48  and  _51
REMARK   18  A    between atoms: _51  and  _52
REMARK   19  A    between atoms: _57  and  _59
REMARK   20  A    between atoms: _59  and  _60
REMARK   21  A    between atoms: _59  and  _62
REMARK   22  A    between atoms: _62  and  _63
REMARK   23  A    between atoms: _68  and  _70
REMARK   24  A    between atoms: _70  and  _71
REMARK   25  A    between atoms: _74  and  _76
REMARK   26  A    between atoms: _76  and  _77
REMARK   27  A    between atoms: _76  and  _79
REMARK   28  A    between atoms: _79  and  _80
REMARK   29  A    between atoms: _85  and  _87
REMARK   30  A    between atoms: _87  and  _88
REMARK   31  A    between atoms: _87  and  _90
REMARK   32  A    between atoms: _90  and  _91
REMARK   33  A    between atoms: _94  and  _96
REMARK   34  A    between atoms: _96  and  _97
REMARK   35  A    between atoms: _96  and  _99
REMARK   36  A    between atoms: _99  and  _100
REMARK   37  A    between atoms: _100  and  _101
REMARK   38  A    between atoms: _106  and  _108
REMARK   39  A    between atoms: _119  and  _122
REMARK   40  A    between atoms: _122  and  _123
REMARK   41  A    between atoms: _131  and  _132
REMARK   42  A    between atoms: _140  and  _142
REMARK   43  A    between atoms: _142  and  _143
REMARK   44  A    between atoms: _142  and  _145
REMARK   45  A    between atoms: _145  and  _146
REMARK   46  A    between atoms: _146  and  _147
REMARK   47  A    between atoms: _150  and  _152
REMARK   48  A    between atoms: _152  and  _153
REMARK   49  A    between atoms: _152  and  _155
REMARK   50  A    between atoms: _155  and  _156
REMARK   51  A    between atoms: _161  and  _163
REMARK   52  A    between atoms: _163  and  _164
REMARK   53  A    between atoms: _163  and  _166
REMARK   54  A    between atoms: _166  and  _167
REMARK   55  A    between atoms: _167  and  _168
REMARK   56  A    between atoms: _171  and  _173
REMARK   57  A    between atoms: _173  and  _174
REMARK   58  A    between atoms: _173  and  _176
REMARK   59  A    between atoms: _176  and  _177
REMARK   60  A    between atoms: _178  and  ZN_377
REMARK   61  A    between atoms: _182  and  _184
REMARK   62  A    between atoms: _184  and  _185
REMARK   63  A    between atoms: _184  and  _187
REMARK   64  A    between atoms: _187  and  _188
REMARK   65  A    between atoms: _191  and  _193
REMARK   66  A    between atoms: _193  and  _194
REMARK   67  A    between atoms: _193  and  _196
REMARK   68  A    between atoms: _199  and  _201
REMARK   69  A    between atoms: _201  and  _202
REMARK   70  A    between atoms: _201  and  _204
REMARK   71  A    between atoms: _204  and  _205
REMARK   72  A    between atoms: _210  and  _212
REMARK   73  A    between atoms: _212  and  _213
REMARK   74  A    between atoms: _212  and  _215
REMARK   75  A    between atoms: _215  and  _216
REMARK   76  A    between atoms: _222  and  _224
REMARK   77  A    between atoms: _224  and  _225
REMARK   78  A    between atoms: _224  and  _227
REMARK   79  A    between atoms: _230  and  _232
REMARK   80  A    between atoms: _232  and  _233
REMARK   81  A    between atoms: _232  and  _235
REMARK   82  A    between atoms: _235  and  _236
REMARK   83  A    between atoms: _239  and  _241
REMARK   84  A    between atoms: _241  and  _242
REMARK   85  A    between atoms: _245  and  _247
REMARK   86  A    between atoms: _247  and  _248
REMARK   87  A    between atoms: _247  and  _250
REMARK   88  A    between atoms: _253  and  _255
REMARK   89  A    between atoms: _255  and  _256
REMARK   90  A    between atoms: _255  and  _258
REMARK   91  A    between atoms: _258  and  _259
REMARK   92  A    between atoms: _262  and  _264
REMARK   93  A    between atoms: _264  and  _265
REMARK   94  A    between atoms: _264  and  _267
REMARK   95  A    between atoms: _267  and  _268
REMARK   96  A    between atoms: _270  and  _272
REMARK   97  A    between atoms: _272  and  _273
REMARK   98  A    between atoms: _272  and  _275
REMARK   99  A    between atoms: _275  and  _276
REMARK  100  A    between atoms: _279  and  _281
REMARK  101  A    between atoms: _281  and  _282
REMARK  102  A    between atoms: _281  and  _284
REMARK  103  A    between atoms: _284  and  _285
REMARK  104  A    between atoms: _288  and  _290
REMARK  105  A    between atoms: _290  and  _291
REMARK  106  A    between atoms: _290  and  _293
REMARK  107  A    between atoms: _293  and  _294
REMARK  108  A    between atoms: _298  and  _299
REMARK  109  A    between atoms: _305  and  _306
REMARK  110  A    between atoms: _311  and  _313
REMARK  111  A    between atoms: _313  and  _314
REMARK  112  A    between atoms: _313  and  _316
REMARK  113  A    between atoms: _316  and  _317
REMARK  114  A    between atoms: _320  and  _322
REMARK  115  A    between atoms: _322  and  _323
REMARK  116  A    between atoms: _322  and  _325
REMARK  117  A    between atoms: _325  and  _326
REMARK  118  A    between atoms: _329  and  _331
REMARK  119  A    between atoms: _331  and  _332
REMARK  120  A    between atoms: _331  and  _334
REMARK  121  A    between atoms: _336  and  _338
REMARK  122  A    between atoms: _338  and  _339
REMARK  123  A    between atoms: _338  and  _341
REMARK  124  A    between atoms: _344  and  _346
REMARK  125  A    between atoms: _346  and  _347
REMARK  126  A    between atoms: _346  and  _349
REMARK  127  A    between atoms: _349  and  _350
REMARK  128  A    between atoms: _360  and  _362
REMARK  129  A    between atoms: _362  and  _363
REMARK  130  A    between atoms: _362  and  _365
REMARK  131  A    between atoms: _365  and  _366
REMARK  132  A    between atoms: _366  and  _367
REMARK  133  A    between atoms: _367  and  _368
REMARK                            x       y       z     vdW  Elec       q    Type
REMARK                         _______ _______ _______ _____ _____    ______ ____
ROOT
ATOM      1  O   HOH     1      17.018   3.386  10.119  0.00  0.00    +0.000 OA
ENDROOT
TORSDOF 0
REMARK  Name = ../refined-set-2016/4q7w/4q7w_pocket.pdb
REMARK  133 active torsions:
REMARK  status: ('A' for Active; 'I' for Inactive)
REMARK    1  A    between atoms: _1  and  _3
REMARK    2  A    between atoms: _3  and  _4
REMARK    3  A    between atoms: _3  and  _6
REMARK    4  A    between atoms: _6  and  _7
REMARK    5  A    between atoms: _17  and  _19
REMARK    6  A    between atoms: _19  and  _20
REMARK    7  A    between atoms: _19  and  _22
REMARK    8  A    between atoms: _22  and  _23
REMARK    9  A    between atoms: _28  and  _29
REMARK   10  A    between atoms: _31  and  _33
REMARK   11  A    between atoms: _33  and  _34
REMARK   12  A    between atoms: _33  and  _36
REMARK   13  A    between atoms: _36  and  _37
REMARK   14  A    between atoms: _40  and  _41
REMARK   15  A    between atoms: _46  and  _48
REMARK   16  A    between atoms: _48  and  _49
REMARK   17  A    between atoms: _48  and  _51
REMARK   18  A    between atoms: _51  and  _52
REMARK   19  A    between atoms: _57  and  _59
REMARK   20  A    between atoms: _59  and  _60
REMARK   21  A    between atoms: _59  and  _62
REMARK   22  A    between atoms: _62  and  _63
REMARK   23  A    between atoms: _68  and  _70
REMARK   24  A    between atoms: _70  and  _71
REMARK   25  A    between atoms: _74  and  _76
REMARK   26  A    between atoms: _76  and  _77
REMARK   27  A    between atoms: _76  and  _79
REMARK   28  A    between atoms: _79  and  _80
REMARK   29  A    between atoms: _85  and  _87
REMARK   30  A    between atoms: _87  and  _88
REMARK   31  A    between atoms: _87  and  _90
REMARK   32  A    between atoms: _90  and  _91
REMARK   33  A    between atoms: _94  and  _96
REMARK   34  A    between atoms: _96  and  _97
REMARK   35  A    between atoms: _96  and  _99
REMARK   36  A    between atoms: _99  and  _100
REMARK   37  A    between atoms: _100  and  _101
REMARK   38  A    between atoms: _106  and  _108
REMARK   39  A    between atoms: _119  and  _122
REMARK   40  A    between atoms: _122  and  _123
REMARK   41  A    between atoms: _131  and  _132
REMARK   42  A    between atoms: _140  and  _142
REMARK   43  A    between atoms: _142  and  _143
REMARK   44  A    between atoms: _142  and  _145
REMARK   45  A    between atoms: _145  and  _146
REMARK   46  A    between atoms: _146  and  _147
REMARK   47  A    between atoms: _150  and  _152
REMARK   48  A    between atoms: _152  and  _153
REMARK   49  A    between atoms: _152  and  _155
REMARK   50  A    between atoms: _155  and  _156
REMARK   51  A    between atoms: _161  and  _163
REMARK   52  A    between atoms: _163  and  _164
REMARK   53  A    between atoms: _163  and  _166
REMARK   54  A    between atoms: _166  and  _167
REMARK   55  A    between atoms: _167  and  _168
REMARK   56  A    between atoms: _171  and  _173
REMARK   57  A    between atoms: _173  and  _174
REMARK   58  A    between atoms: _173  and  _176
REMARK   59  A    between atoms: _176  and  _177
REMARK   60  A    between atoms: _178  and  ZN_377
REMARK   61  A    between atoms: _182  and  _184
REMARK   62  A    between atoms: _184  and  _185
REMARK   63  A    between atoms: _184  and  _187
REMARK   64  A    between atoms: _187  and  _188
REMARK   65  A    between atoms: _191  and  _193
REMARK   66  A    between atoms: _193  and  _194
REMARK   67  A    between atoms: _193  and  _196
REMARK   68  A    between atoms: _199  and  _201
REMARK   69  A    between atoms: _201  and  _202
REMARK   70  A    between atoms: _201  and  _204
REMARK   71  A    between atoms: _204  and  _205
REMARK   72  A    between atoms: _210  and  _212
REMARK   73  A    between atoms: _212  and  _213
REMARK   74  A    between atoms: _212  and  _215
REMARK   75  A    between atoms: _215  and  _216
REMARK   76  A    between atoms: _222  and  _224
REMARK   77  A    between atoms: _224  and  _225
REMARK   78  A    between atoms: _224  and  _227
REMARK   79  A    between atoms: _230  and  _232
REMARK   80  A    between atoms: _232  and  _233
REMARK   81  A    between atoms: _232  and  _235
REMARK   82  A    between atoms: _235  and  _236
REMARK   83  A    between atoms: _239  and  _241
REMARK   84  A    between atoms: _241  and  _242
REMARK   85  A    between atoms: _245  and  _247
REMARK   86  A    between atoms: _247  and  _248
REMARK   87  A    between atoms: _247  and  _250
REMARK   88  A    between atoms: _253  and  _255
REMARK   89  A    between atoms: _255  and  _256
REMARK   90  A    between atoms: _255  and  _258
REMARK   91  A    between atoms: _258  and  _259
REMARK   92  A    between atoms: _262  and  _264
REMARK   93  A    between atoms: _264  and  _265
REMARK   94  A    between atoms: _264  and  _267
REMARK   95  A    between atoms: _267  and  _268
REMARK   96  A    between atoms: _270  and  _272
REMARK   97  A    between atoms: _272  and  _273
REMARK   98  A    between atoms: _272  and  _275
REMARK   99  A    between atoms: _275  and  _276
REMARK  100  A    between atoms: _279  and  _281
REMARK  101  A    between atoms: _281  and  _282
REMARK  102  A    between atoms: _281  and  _284
REMARK  103  A    between atoms: _284  and  _285
REMARK  104  A    between atoms: _288  and  _290
REMARK  105  A    between atoms: _290  and  _291
REMARK  106  A    between atoms: _290  and  _293
REMARK  107  A    between atoms: _293  and  _294
REMARK  108  A    between atoms: _298  and  _299
REMARK  109  A    between atoms: _305  and  _306
REMARK  110  A    between atoms: _311  and  _313
REMARK  111  A    between atoms: _313  and  _314
REMARK  112  A    between atoms: _313  and  _316
REMARK  113  A    between atoms: _316  and  _317
REMARK  114  A    between atoms: _320  and  _322
REMARK  115  A    between atoms: _322  and  _323
REMARK  116  A    between atoms: _322  and  _325
REMARK  117  A    between atoms: _325  and  _326
REMARK  118  A    between atoms: _329  and  _331
REMARK  119  A    between atoms: _331  and  _332
REMARK  120  A    between atoms: _331  and  _334
REMARK  121  A    between atoms: _336  and  _338
REMARK  122  A    between atoms: _338  and  _339
REMARK  123  A    between atoms: _338  and  _341
REMARK  124  A    between atoms: _344  and  _346
REMARK  125  A    between atoms: _346  and  _347
REMARK  126  A    between atoms: _346  and  _349
REMARK  127  A    between atoms: _349  and  _350
REMARK  128  A    between atoms: _360  and  _362
REMARK  129  A    between atoms: _362  and  _363
REMARK  130  A    between atoms: _362  and  _365
REMARK  131  A    between atoms: _365  and  _366
REMARK  132  A    between atoms: _366  and  _367
REMARK  133  A    between atoms: _367  and  _368
REMARK                            x       y       z     vdW  Elec       q    Type
REMARK                         _______ _______ _______ _____ _____    ______ ____
ROOT
ATOM      1  O   HOH     1      19.672  -4.340  15.762  0.00  0.00    +0.000 OA
ENDROOT
TORSDOF 0
REMARK  Name = ../refined-set-2016/4q7w/4q7w_pocket.pdb
REMARK  133 active torsions:
REMARK  status: ('A' for Active; 'I' for Inactive)
REMARK    1  A    between atoms: _1  and  _3
REMARK    2  A    between atoms: _3  and  _4
REMARK    3  A    between atoms: _3  and  _6
REMARK    4  A    between atoms: _6  and  _7
REMARK    5  A    between atoms: _17  and  _19
REMARK    6  A    between atoms: _19  and  _20
REMARK    7  A    between atoms: _19  and  _22
REMARK    8  A    between atoms: _22  and  _23
REMARK    9  A    between atoms: _28  and  _29
REMARK   10  A    between atoms: _31  and  _33
REMARK   11  A    between atoms: _33  and  _34
REMARK   12  A    between atoms: _33  and  _36
REMARK   13  A    between atoms: _36  and  _37
REMARK   14  A    between atoms: _40  and  _41
REMARK   15  A    between atoms: _46  and  _48
REMARK   16  A    between atoms: _48  and  _49
REMARK   17  A    between atoms: _48  and  _51
REMARK   18  A    between atoms: _51  and  _52
REMARK   19  A    between atoms: _57  and  _59
REMARK   20  A    between atoms: _59  and  _60
REMARK   21  A    between atoms: _59  and  _62
REMARK   22  A    between atoms: _62  and  _63
REMARK   23  A    between atoms: _68  and  _70
REMARK   24  A    between atoms: _70  and  _71
REMARK   25  A    between atoms: _74  and  _76
REMARK   26  A    between atoms: _76  and  _77
REMARK   27  A    between atoms: _76  and  _79
REMARK   28  A    between atoms: _79  and  _80
REMARK   29  A    between atoms: _85  and  _87
REMARK   30  A    between atoms: _87  and  _88
REMARK   31  A    between atoms: _87  and  _90
REMARK   32  A    between atoms: _90  and  _91
REMARK   33  A    between atoms: _94  and  _96
REMARK   34  A    between atoms: _96  and  _97
REMARK   35  A    between atoms: _96  and  _99
REMARK   36  A    between atoms: _99  and  _100
REMARK   37  A    between atoms: _100  and  _101
REMARK   38  A    between atoms: _106  and  _108
REMARK   39  A    between atoms: _119  and  _122
REMARK   40  A    between atoms: _122  and  _123
REMARK   41  A    between atoms: _131  and  _132
REMARK   42  A    between atoms: _140  and  _142
REMARK   43  A    between atoms: _142  and  _143
REMARK   44  A    between atoms: _142  and  _145
REMARK   45  A    between atoms: _145  and  _146
REMARK   46  A    between atoms: _146  and  _147
REMARK   47  A    between atoms: _150  and  _152
REMARK   48  A    between atoms: _152  and  _153
REMARK   49  A    between atoms: _152  and  _155
REMARK   50  A    between atoms: _155  and  _156
REMARK   51  A    between atoms: _161  and  _163
REMARK   52  A    between atoms: _163  and  _164
REMARK   53  A    between atoms: _163  and  _166
REMARK   54  A    between atoms: _166  and  _167
REMARK   55  A    between atoms: _167  and  _168
REMARK   56  A    between atoms: _171  and  _173
REMARK   57  A    between atoms: _173  and  _174
REMARK   58  A    between atoms: _173  and  _176
REMARK   59  A    between atoms: _176  and  _177
REMARK   60  A    between atoms: _178  and  ZN_377
REMARK   61  A    between atoms: _182  and  _184
REMARK   62  A    between atoms: _184  and  _185
REMARK   63  A    between atoms: _184  and  _187
REMARK   64  A    between atoms: _187  and  _188
REMARK   65  A    between atoms: _191  and  _193
REMARK   66  A    between atoms: _193  and  _194
REMARK   67  A    between atoms: _193  and  _196
REMARK   68  A    between atoms: _199  and  _201
REMARK   69  A    between atoms: _201  and  _202
REMARK   70  A    between atoms: _201  and  _204
REMARK   71  A    between atoms: _204  and  _205
REMARK   72  A    between atoms: _210  and  _212
REMARK   73  A    between atoms: _212  and  _213
REMARK   74  A    between atoms: _212  and  _215
REMARK   75  A    between atoms: _215  and  _216
REMARK   76  A    between atoms: _222  and  _224
REMARK   77  A    between atoms: _224  and  _225
REMARK   78  A    between atoms: _224  and  _227
REMARK   79  A    between atoms: _230  and  _232
REMARK   80  A    between atoms: _232  and  _233
REMARK   81  A    between atoms: _232  and  _235
REMARK   82  A    between atoms: _235  and  _236
REMARK   83  A    between atoms: _239  and  _241
REMARK   84  A    between atoms: _241  and  _242
REMARK   85  A    between atoms: _245  and  _247
REMARK   86  A    between atoms: _247  and  _248
REMARK   87  A    between atoms: _247  and  _250
REMARK   88  A    between atoms: _253  and  _255
REMARK   89  A    between atoms: _255  and  _256
REMARK   90  A    between atoms: _255  and  _258
REMARK   91  A    between atoms: _258  and  _259
REMARK   92  A    between atoms: _262  and  _264
REMARK   93  A    between atoms: _264  and  _265
REMARK   94  A    between atoms: _264  and  _267
REMARK   95  A    between atoms: _267  and  _268
REMARK   96  A    between atoms: _270  and  _272
REMARK   97  A    between atoms: _272  and  _273
REMARK   98  A    between atoms: _272  and  _275
REMARK   99  A    between atoms: _275  and  _276
REMARK  100  A    between atoms: _279  and  _281
REMARK  101  A    between atoms: _281  and  _282
REMARK  102  A    between atoms: _281  and  _284
REMARK  103  A    between atoms: _284  and  _285
REMARK  104  A    between atoms: _288  and  _290
REMARK  105  A    between atoms: _290  and  _291
REMARK  106  A    between atoms: _290  and  _293
REMARK  107  A    between atoms: _293  and  _294
REMARK  108  A    between atoms: _298  and  _299
REMARK  109  A    between atoms: _305  and  _306
REMARK  110  A    between atoms: _311  and  _313
REMARK  111  A    between atoms: _313  and  _314
REMARK  112  A    between atoms: _313  and  _316
REMARK  113  A    between atoms: _316  and  _317
REMARK  114  A    between atoms: _320  and  _322
REMARK  115  A    between atoms: _322  and  _323
REMARK  116  A    between atoms: _322  and  _325
REMARK  117  A    between atoms: _325  and  _326
REMARK  118  A    between atoms: _329  and  _331
REMARK  119  A    between atoms: _331  and  _332
REMARK  120  A    between atoms: _331  and  _334
REMARK  121  A    between atoms: _336  and  _338
REMARK  122  A    between atoms: _338  and  _339
REMARK  123  A    between atoms: _338  and  _341
REMARK  124  A    between atoms: _344  and  _346
REMARK  125  A    between atoms: _346  and  _347
REMARK  126  A    between atoms: _346  and  _349
REMARK  127  A    between atoms: _349  and  _350
REMARK  128  A    between atoms: _360  and  _362
REMARK  129  A    between atoms: _362  and  _363
REMARK  130  A    between atoms: _362  and  _365
REMARK  131  A    between atoms: _365  and  _366
REMARK  132  A    between atoms: _366  and  _367
REMARK  133  A    between atoms: _367  and  _368
REMARK                            x       y       z     vdW  Elec       q    Type
REMARK                         _______ _______ _______ _____ _____    ______ ____
ROOT
ATOM      1  O   HOH     1      14.220   5.684   6.243  0.00  0.00    +0.000 OA
ENDROOT
TORSDOF 0
REMARK  Name = ../refined-set-2016/4q7w/4q7w_pocket.pdb
REMARK  133 active torsions:
REMARK  status: ('A' for Active; 'I' for Inactive)
REMARK    1  A    between atoms: _1  and  _3
REMARK    2  A    between atoms: _3  and  _4
REMARK    3  A    between atoms: _3  and  _6
REMARK    4  A    between atoms: _6  and  _7
REMARK    5  A    between atoms: _17  and  _19
REMARK    6  A    between atoms: _19  and  _20
REMARK    7  A    between atoms: _19  and  _22
REMARK    8  A    between atoms: _22  and  _23
REMARK    9  A    between atoms: _28  and  _29
REMARK   10  A    between atoms: _31  and  _33
REMARK   11  A    between atoms: _33  and  _34
REMARK   12  A    between atoms: _33  and  _36
REMARK   13  A    between atoms: _36  and  _37
REMARK   14  A    between atoms: _40  and  _41
REMARK   15  A    between atoms: _46  and  _48
REMARK   16  A    between atoms: _48  and  _49
REMARK   17  A    between atoms: _48  and  _51
REMARK   18  A    between atoms: _51  and  _52
REMARK   19  A    between atoms: _57  and  _59
REMARK   20  A    between atoms: _59  and  _60
REMARK   21  A    between atoms: _59  and  _62
REMARK   22  A    between atoms: _62  and  _63
REMARK   23  A    between atoms: _68  and  _70
REMARK   24  A    between atoms: _70  and  _71
REMARK   25  A    between atoms: _74  and  _76
REMARK   26  A    between atoms: _76  and  _77
REMARK   27  A    between atoms: _76  and  _79
REMARK   28  A    between atoms: _79  and  _80
REMARK   29  A    between atoms: _85  and  _87
REMARK   30  A    between atoms: _87  and  _88
REMARK   31  A    between atoms: _87  and  _90
REMARK   32  A    between atoms: _90  and  _91
REMARK   33  A    between atoms: _94  and  _96
REMARK   34  A    between atoms: _96  and  _97
REMARK   35  A    between atoms: _96  and  _99
REMARK   36  A    between atoms: _99  and  _100
REMARK   37  A    between atoms: _100  and  _101
REMARK   38  A    between atoms: _106  and  _108
REMARK   39  A    between atoms: _119  and  _122
REMARK   40  A    between atoms: _122  and  _123
REMARK   41  A    between atoms: _131  and  _132
REMARK   42  A    between atoms: _140  and  _142
REMARK   43  A    between atoms: _142  and  _143
REMARK   44  A    between atoms: _142  and  _145
REMARK   45  A    between atoms: _145  and  _146
REMARK   46  A    between atoms: _146  and  _147
REMARK   47  A    between atoms: _150  and  _152
REMARK   48  A    between atoms: _152  and  _153
REMARK   49  A    between atoms: _152  and  _155
REMARK   50  A    between atoms: _155  and  _156
REMARK   51  A    between atoms: _161  and  _163
REMARK   52  A    between atoms: _163  and  _164
REMARK   53  A    between atoms: _163  and  _166
REMARK   54  A    between atoms: _166  and  _167
REMARK   55  A    between atoms: _167  and  _168
REMARK   56  A    between atoms: _171  and  _173
REMARK   57  A    between atoms: _173  and  _174
REMARK   58  A    between atoms: _173  and  _176
REMARK   59  A    between atoms: _176  and  _177
REMARK   60  A    between atoms: _178  and  ZN_377
REMARK   61  A    between atoms: _182  and  _184
REMARK   62  A    between atoms: _184  and  _185
REMARK   63  A    between atoms: _184  and  _187
REMARK   64  A    between atoms: _187  and  _188
REMARK   65  A    between atoms: _191  and  _193
REMARK   66  A    between atoms: _193  and  _194
REMARK   67  A    between atoms: _193  and  _196
REMARK   68  A    between atoms: _199  and  _201
REMARK   69  A    between atoms: _201  and  _202
REMARK   70  A    between atoms: _201  and  _204
REMARK   71  A    between atoms: _204  and  _205
REMARK   72  A    between atoms: _210  and  _212
REMARK   73  A    between atoms: _212  and  _213
REMARK   74  A    between atoms: _212  and  _215
REMARK   75  A    between atoms: _215  and  _216
REMARK   76  A    between atoms: _222  and  _224
REMARK   77  A    between atoms: _224  and  _225
REMARK   78  A    between atoms: _224  and  _227
REMARK   79  A    between atoms: _230  and  _232
REMARK   80  A    between atoms: _232  and  _233
REMARK   81  A    between atoms: _232  and  _235
REMARK   82  A    between atoms: _235  and  _236
REMARK   83  A    between atoms: _239  and  _241
REMARK   84  A    between atoms: _241  and  _242
REMARK   85  A    between atoms: _245  and  _247
REMARK   86  A    between atoms: _247  and  _248
REMARK   87  A    between atoms: _247  and  _250
REMARK   88  A    between atoms: _253  and  _255
REMARK   89  A    between atoms: _255  and  _256
REMARK   90  A    between atoms: _255  and  _258
REMARK   91  A    between atoms: _258  and  _259
REMARK   92  A    between atoms: _262  and  _264
REMARK   93  A    between atoms: _264  and  _265
REMARK   94  A    between atoms: _264  and  _267
REMARK   95  A    between atoms: _267  and  _268
REMARK   96  A    between atoms: _270  and  _272
REMARK   97  A    between atoms: _272  and  _273
REMARK   98  A    between atoms: _272  and  _275
REMARK   99  A    between atoms: _275  and  _276
REMARK  100  A    between atoms: _279  and  _281
REMARK  101  A    between atoms: _281  and  _282
REMARK  102  A    between atoms: _281  and  _284
REMARK  103  A    between atoms: _284  and  _285
REMARK  104  A    between atoms: _288  and  _290
REMARK  105  A    between atoms: _290  and  _291
REMARK  106  A    between atoms: _290  and  _293
REMARK  107  A    between atoms: _293  and  _294
REMARK  108  A    between atoms: _298  and  _299
REMARK  109  A    between atoms: _305  and  _306
REMARK  110  A    between atoms: _311  and  _313
REMARK  111  A    between atoms: _313  and  _314
REMARK  112  A    between atoms: _313  and  _316
REMARK  113  A    between atoms: _316  and  _317
REMARK  114  A    between atoms: _320  and  _322
REMARK  115  A    between atoms: _322  and  _323
REMARK  116  A    between atoms: _322  and  _325
REMARK  117  A    between atoms: _325  and  _326
REMARK  118  A    between atoms: _329  and  _331
REMARK  119  A    between atoms: _331  and  _332
REMARK  120  A    between atoms: _331  and  _334
REMARK  121  A    between atoms: _336  and  _338
REMARK  122  A    between atoms: _338  and  _339
REMARK  123  A    between atoms: _338  and  _341
REMARK  124  A    between atoms: _344  and  _346
REMARK  125  A    between atoms: _346  and  _347
REMARK  126  A    between atoms: _346  and  _349
REMARK  127  A    between atoms: _349  and  _350
REMARK  128  A    between atoms: _360  and  _362
REMARK  129  A    between atoms: _362  and  _363
REMARK  130  A    between atoms: _362  and  _365
REMARK  131  A    between atoms: _365  and  _366
REMARK  132  A    between atoms: _366  and  _367
REMARK  133  A    between atoms: _367  and  _368
REMARK                            x       y       z     vdW  Elec       q    Type
REMARK                         _______ _______ _______ _____ _____    ______ ____
ROOT
ATOM      1  O   HOH     1      13.206   7.173   8.304  0.00  0.00    +0.000 OA
ENDROOT
TORSDOF 0
REMARK  Name = ../refined-set-2016/4q7w/4q7w_pocket.pdb
REMARK  133 active torsions:
REMARK  status: ('A' for Active; 'I' for Inactive)
REMARK    1  A    between atoms: _1  and  _3
REMARK    2  A    between atoms: _3  and  _4
REMARK    3  A    between atoms: _3  and  _6
REMARK    4  A    between atoms: _6  and  _7
REMARK    5  A    between atoms: _17  and  _19
REMARK    6  A    between atoms: _19  and  _20
REMARK    7  A    between atoms: _19  and  _22
REMARK    8  A    between atoms: _22  and  _23
REMARK    9  A    between atoms: _28  and  _29
REMARK   10  A    between atoms: _31  and  _33
REMARK   11  A    between atoms: _33  and  _34
REMARK   12  A    between atoms: _33  and  _36
REMARK   13  A    between atoms: _36  and  _37
REMARK   14  A    between atoms: _40  and  _41
REMARK   15  A    between atoms: _46  and  _48
REMARK   16  A    between atoms: _48  and  _49
REMARK   17  A    between atoms: _48  and  _51
REMARK   18  A    between atoms: _51  and  _52
REMARK   19  A    between atoms: _57  and  _59
REMARK   20  A    between atoms: _59  and  _60
REMARK   21  A    between atoms: _59  and  _62
REMARK   22  A    between atoms: _62  and  _63
REMARK   23  A    between atoms: _68  and  _70
REMARK   24  A    between atoms: _70  and  _71
REMARK   25  A    between atoms: _74  and  _76
REMARK   26  A    between atoms: _76  and  _77
REMARK   27  A    between atoms: _76  and  _79
REMARK   28  A    between atoms: _79  and  _80
REMARK   29  A    between atoms: _85  and  _87
REMARK   30  A    between atoms: _87  and  _88
REMARK   31  A    between atoms: _87  and  _90
REMARK   32  A    between atoms: _90  and  _91
REMARK   33  A    between atoms: _94  and  _96
REMARK   34  A    between atoms: _96  and  _97
REMARK   35  A    between atoms: _96  and  _99
REMARK   36  A    between atoms: _99  and  _100
REMARK   37  A    between atoms: _100  and  _101
REMARK   38  A    between atoms: _106  and  _108
REMARK   39  A    between atoms: _119  and  _122
REMARK   40  A    between atoms: _122  and  _123
REMARK   41  A    between atoms: _131  and  _132
REMARK   42  A    between atoms: _140  and  _142
REMARK   43  A    between atoms: _142  and  _143
REMARK   44  A    between atoms: _142  and  _145
REMARK   45  A    between atoms: _145  and  _146
REMARK   46  A    between atoms: _146  and  _147
REMARK   47  A    between atoms: _150  and  _152
REMARK   48  A    between atoms: _152  and  _153
REMARK   49  A    between atoms: _152  and  _155
REMARK   50  A    between atoms: _155  and  _156
REMARK   51  A    between atoms: _161  and  _163
REMARK   52  A    between atoms: _163  and  _164
REMARK   53  A    between atoms: _163  and  _166
REMARK   54  A    between atoms: _166  and  _167
REMARK   55  A    between atoms: _167  and  _168
REMARK   56  A    between atoms: _171  and  _173
REMARK   57  A    between atoms: _173  and  _174
REMARK   58  A    between atoms: _173  and  _176
REMARK   59  A    between atoms: _176  and  _177
REMARK   60  A    between atoms: _178  and  ZN_377
REMARK   61  A    between atoms: _182  and  _184
REMARK   62  A    between atoms: _184  and  _185
REMARK   63  A    between atoms: _184  and  _187
REMARK   64  A    between atoms: _187  and  _188
REMARK   65  A    between atoms: _191  and  _193
REMARK   66  A    between atoms: _193  and  _194
REMARK   67  A    between atoms: _193  and  _196
REMARK   68  A    between atoms: _199  and  _201
REMARK   69  A    between atoms: _201  and  _202
REMARK   70  A    between atoms: _201  and  _204
REMARK   71  A    between atoms: _204  and  _205
REMARK   72  A    between atoms: _210  and  _212
REMARK   73  A    between atoms: _212  and  _213
REMARK   74  A    between atoms: _212  and  _215
REMARK   75  A    between atoms: _215  and  _216
REMARK   76  A    between atoms: _222  and  _224
REMARK   77  A    between atoms: _224  and  _225
REMARK   78  A    between atoms: _224  and  _227
REMARK   79  A    between atoms: _230  and  _232
REMARK   80  A    between atoms: _232  and  _233
REMARK   81  A    between atoms: _232  and  _235
REMARK   82  A    between atoms: _235  and  _236
REMARK   83  A    between atoms: _239  and  _241
REMARK   84  A    between atoms: _241  and  _242
REMARK   85  A    between atoms: _245  and  _247
REMARK   86  A    between atoms: _247  and  _248
REMARK   87  A    between atoms: _247  and  _250
REMARK   88  A    between atoms: _253  and  _255
REMARK   89  A    between atoms: _255  and  _256
REMARK   90  A    between atoms: _255  and  _258
REMARK   91  A    between atoms: _258  and  _259
REMARK   92  A    between atoms: _262  and  _264
REMARK   93  A    between atoms: _264  and  _265
REMARK   94  A    between atoms: _264  and  _267
REMARK   95  A    between atoms: _267  and  _268
REMARK   96  A    between atoms: _270  and  _272
REMARK   97  A    between atoms: _272  and  _273
REMARK   98  A    between atoms: _272  and  _275
REMARK   99  A    between atoms: _275  and  _276
REMARK  100  A    between atoms: _279  and  _281
REMARK  101  A    between atoms: _281  and  _282
REMARK  102  A    between atoms: _281  and  _284
REMARK  103  A    between atoms: _284  and  _285
REMARK  104  A    between atoms: _288  and  _290
REMARK  105  A    between atoms: _290  and  _291
REMARK  106  A    between atoms: _290  and  _293
REMARK  107  A    between atoms: _293  and  _294
REMARK  108  A    between atoms: _298  and  _299
REMARK  109  A    between atoms: _305  and  _306
REMARK  110  A    between atoms: _311  and  _313
REMARK  111  A    between atoms: _313  and  _314
REMARK  112  A    between atoms: _313  and  _316
REMARK  113  A    between atoms: _316  and  _317
REMARK  114  A    between atoms: _320  and  _322
REMARK  115  A    between atoms: _322  and  _323
REMARK  116  A    between atoms: _322  and  _325
REMARK  117  A    between atoms: _325  and  _326
REMARK  118  A    between atoms: _329  and  _331
REMARK  119  A    between atoms: _331  and  _332
REMARK  120  A    between atoms: _331  and  _334
REMARK  121  A    between atoms: _336  and  _338
REMARK  122  A    between atoms: _338  and  _339
REMARK  123  A    between atoms: _338  and  _341
REMARK  124  A    between atoms: _344  and  _346
REMARK  125  A    between atoms: _346  and  _347
REMARK  126  A    between atoms: _346  and  _349
REMARK  127  A    between atoms: _349  and  _350
REMARK  128  A    between atoms: _360  and  _362
REMARK  129  A    between atoms: _362  and  _363
REMARK  130  A    between atoms: _362  and  _365
REMARK  131  A    between atoms: _365  and  _366
REMARK  132  A    between atoms: _366  and  _367
REMARK  133  A    between atoms: _367  and  _368
REMARK                            x       y       z     vdW  Elec       q    Type
REMARK                         _______ _______ _______ _____ _____    ______ ____
ROOT
ATOM      1  O   HOH     1      15.936  -3.225  11.657  0.00  0.00    +0.000 OA
ENDROOT
TORSDOF 0
REMARK  Name = ../refined-set-2016/4q7w/4q7w_pocket.pdb
REMARK  133 active torsions:
REMARK  status: ('A' for Active; 'I' for Inactive)
REMARK    1  A    between atoms: _1  and  _3
REMARK    2  A    between atoms: _3  and  _4
REMARK    3  A    between atoms: _3  and  _6
REMARK    4  A    between atoms: _6  and  _7
REMARK    5  A    between atoms: _17  and  _19
REMARK    6  A    between atoms: _19  and  _20
REMARK    7  A    between atoms: _19  and  _22
REMARK    8  A    between atoms: _22  and  _23
REMARK    9  A    between atoms: _28  and  _29
REMARK   10  A    between atoms: _31  and  _33
REMARK   11  A    between atoms: _33  and  _34
REMARK   12  A    between atoms: _33  and  _36
REMARK   13  A    between atoms: _36  and  _37
REMARK   14  A    between atoms: _40  and  _41
REMARK   15  A    between atoms: _46  and  _48
REMARK   16  A    between atoms: _48  and  _49
REMARK   17  A    between atoms: _48  and  _51
REMARK   18  A    between atoms: _51  and  _52
REMARK   19  A    between atoms: _57  and  _59
REMARK   20  A    between atoms: _59  and  _60
REMARK   21  A    between atoms: _59  and  _62
REMARK   22  A    between atoms: _62  and  _63
REMARK   23  A    between atoms: _68  and  _70
REMARK   24  A    between atoms: _70  and  _71
REMARK   25  A    between atoms: _74  and  _76
REMARK   26  A    between atoms: _76  and  _77
REMARK   27  A    between atoms: _76  and  _79
REMARK   28  A    between atoms: _79  and  _80
REMARK   29  A    between atoms: _85  and  _87
REMARK   30  A    between atoms: _87  and  _88
REMARK   31  A    between atoms: _87  and  _90
REMARK   32  A    between atoms: _90  and  _91
REMARK   33  A    between atoms: _94  and  _96
REMARK   34  A    between atoms: _96  and  _97
REMARK   35  A    between atoms: _96  and  _99
REMARK   36  A    between atoms: _99  and  _100
REMARK   37  A    between atoms: _100  and  _101
REMARK   38  A    between atoms: _106  and  _108
REMARK   39  A    between atoms: _119  and  _122
REMARK   40  A    between atoms: _122  and  _123
REMARK   41  A    between atoms: _131  and  _132
REMARK   42  A    between atoms: _140  and  _142
REMARK   43  A    between atoms: _142  and  _143
REMARK   44  A    between atoms: _142  and  _145
REMARK   45  A    between atoms: _145  and  _146
REMARK   46  A    between atoms: _146  and  _147
REMARK   47  A    between atoms: _150  and  _152
REMARK   48  A    between atoms: _152  and  _153
REMARK   49  A    between atoms: _152  and  _155
REMARK   50  A    between atoms: _155  and  _156
REMARK   51  A    between atoms: _161  and  _163
REMARK   52  A    between atoms: _163  and  _164
REMARK   53  A    between atoms: _163  and  _166
REMARK   54  A    between atoms: _166  and  _167
REMARK   55  A    between atoms: _167  and  _168
REMARK   56  A    between atoms: _171  and  _173
REMARK   57  A    between atoms: _173  and  _174
REMARK   58  A    between atoms: _173  and  _176
REMARK   59  A    between atoms: _176  and  _177
REMARK   60  A    between atoms: _178  and  ZN_377
REMARK   61  A    between atoms: _182  and  _184
REMARK   62  A    between atoms: _184  and  _185
REMARK   63  A    between atoms: _184  and  _187
REMARK   64  A    between atoms: _187  and  _188
REMARK   65  A    between atoms: _191  and  _193
REMARK   66  A    between atoms: _193  and  _194
REMARK   67  A    between atoms: _193  and  _196
REMARK   68  A    between atoms: _199  and  _201
REMARK   69  A    between atoms: _201  and  _202
REMARK   70  A    between atoms: _201  and  _204
REMARK   71  A    between atoms: _204  and  _205
REMARK   72  A    between atoms: _210  and  _212
REMARK   73  A    between atoms: _212  and  _213
REMARK   74  A    between atoms: _212  and  _215
REMARK   75  A    between atoms: _215  and  _216
REMARK   76  A    between atoms: _222  and  _224
REMARK   77  A    between atoms: _224  and  _225
REMARK   78  A    between atoms: _224  and  _227
REMARK   79  A    between atoms: _230  and  _232
REMARK   80  A    between atoms: _232  and  _233
REMARK   81  A    between atoms: _232  and  _235
REMARK   82  A    between atoms: _235  and  _236
REMARK   83  A    between atoms: _239  and  _241
REMARK   84  A    between atoms: _241  and  _242
REMARK   85  A    between atoms: _245  and  _247
REMARK   86  A    between atoms: _247  and  _248
REMARK   87  A    between atoms: _247  and  _250
REMARK   88  A    between atoms: _253  and  _255
REMARK   89  A    between atoms: _255  and  _256
REMARK   90  A    between atoms: _255  and  _258
REMARK   91  A    between atoms: _258  and  _259
REMARK   92  A    between atoms: _262  and  _264
REMARK   93  A    between atoms: _264  and  _265
REMARK   94  A    between atoms: _264  and  _267
REMARK   95  A    between atoms: _267  and  _268
REMARK   96  A    between atoms: _270  and  _272
REMARK   97  A    between atoms: _272  and  _273
REMARK   98  A    between atoms: _272  and  _275
REMARK   99  A    between atoms: _275  and  _276
REMARK  100  A    between atoms: _279  and  _281
REMARK  101  A    between atoms: _281  and  _282
REMARK  102  A    between atoms: _281  and  _284
REMARK  103  A    between atoms: _284  and  _285
REMARK  104  A    between atoms: _288  and  _290
REMARK  105  A    between atoms: _290  and  _291
REMARK  106  A    between atoms: _290  and  _293
REMARK  107  A    between atoms: _293  and  _294
REMARK  108  A    between atoms: _298  and  _299
REMARK  109  A    between atoms: _305  and  _306
REMARK  110  A    between atoms: _311  and  _313
REMARK  111  A    between atoms: _313  and  _314
REMARK  112  A    between atoms: _313  and  _316
REMARK  113  A    between atoms: _316  and  _317
REMARK  114  A    between atoms: _320  and  _322
REMARK  115  A    between atoms: _322  and  _323
REMARK  116  A    between atoms: _322  and  _325
REMARK  117  A    between atoms: _325  and  _326
REMARK  118  A    between atoms: _329  and  _331
REMARK  119  A    between atoms: _331  and  _332
REMARK  120  A    between atoms: _331  and  _334
REMARK  121  A    between atoms: _336  and  _338
REMARK  122  A    between atoms: _338  and  _339
REMARK  123  A    between atoms: _338  and  _341
REMARK  124  A    between atoms: _344  and  _346
REMARK  125  A    between atoms: _346  and  _347
REMARK  126  A    between atoms: _346  and  _349
REMARK  127  A    between atoms: _349  and  _350
REMARK  128  A    between atoms: _360  and  _362
REMARK  129  A    between atoms: _362  and  _363
REMARK  130  A    between atoms: _362  and  _365
REMARK  131  A    between atoms: _365  and  _366
REMARK  132  A    between atoms: _366  and  _367
REMARK  133  A    between atoms: _367  and  _368
REMARK                            x       y       z     vdW  Elec       q    Type
REMARK                         _______ _______ _______ _____ _____    ______ ____
ROOT
ATOM      1  O   HOH     1      19.630   2.274  11.001  0.00  0.00    +0.000 OA
ENDROOT
TORSDOF 0
REMARK  Name = ../refined-set-2016/4q7w/4q7w_pocket.pdb
REMARK  133 active torsions:
REMARK  status: ('A' for Active; 'I' for Inactive)
REMARK    1  A    between atoms: _1  and  _3
REMARK    2  A    between atoms: _3  and  _4
REMARK    3  A    between atoms: _3  and  _6
REMARK    4  A    between atoms: _6  and  _7
REMARK    5  A    between atoms: _17  and  _19
REMARK    6  A    between atoms: _19  and  _20
REMARK    7  A    between atoms: _19  and  _22
REMARK    8  A    between atoms: _22  and  _23
REMARK    9  A    between atoms: _28  and  _29
REMARK   10  A    between atoms: _31  and  _33
REMARK   11  A    between atoms: _33  and  _34
REMARK   12  A    between atoms: _33  and  _36
REMARK   13  A    between atoms: _36  and  _37
REMARK   14  A    between atoms: _40  and  _41
REMARK   15  A    between atoms: _46  and  _48
REMARK   16  A    between atoms: _48  and  _49
REMARK   17  A    between atoms: _48  and  _51
REMARK   18  A    between atoms: _51  and  _52
REMARK   19  A    between atoms: _57  and  _59
REMARK   20  A    between atoms: _59  and  _60
REMARK   21  A    between atoms: _59  and  _62
REMARK   22  A    between atoms: _62  and  _63
REMARK   23  A    between atoms: _68  and  _70
REMARK   24  A    between atoms: _70  and  _71
REMARK   25  A    between atoms: _74  and  _76
REMARK   26  A    between atoms: _76  and  _77
REMARK   27  A    between atoms: _76  and  _79
REMARK   28  A    between atoms: _79  and  _80
REMARK   29  A    between atoms: _85  and  _87
REMARK   30  A    between atoms: _87  and  _88
REMARK   31  A    between atoms: _87  and  _90
REMARK   32  A    between atoms: _90  and  _91
REMARK   33  A    between atoms: _94  and  _96
REMARK   34  A    between atoms: _96  and  _97
REMARK   35  A    between atoms: _96  and  _99
REMARK   36  A    between atoms: _99  and  _100
REMARK   37  A    between atoms: _100  and  _101
REMARK   38  A    between atoms: _106  and  _108
REMARK   39  A    between atoms: _119  and  _122
REMARK   40  A    between atoms: _122  and  _123
REMARK   41  A    between atoms: _131  and  _132
REMARK   42  A    between atoms: _140  and  _142
REMARK   43  A    between atoms: _142  and  _143
REMARK   44  A    between atoms: _142  and  _145
REMARK   45  A    between atoms: _145  and  _146
REMARK   46  A    between atoms: _146  and  _147
REMARK   47  A    between atoms: _150  and  _152
REMARK   48  A    between atoms: _152  and  _153
REMARK   49  A    between atoms: _152  and  _155
REMARK   50  A    between atoms: _155  and  _156
REMARK   51  A    between atoms: _161  and  _163
REMARK   52  A    between atoms: _163  and  _164
REMARK   53  A    between atoms: _163  and  _166
REMARK   54  A    between atoms: _166  and  _167
REMARK   55  A    between atoms: _167  and  _168
REMARK   56  A    between atoms: _171  and  _173
REMARK   57  A    between atoms: _173  and  _174
REMARK   58  A    between atoms: _173  and  _176
REMARK   59  A    between atoms: _176  and  _177
REMARK   60  A    between atoms: _178  and  ZN_377
REMARK   61  A    between atoms: _182  and  _184
REMARK   62  A    between atoms: _184  and  _185
REMARK   63  A    between atoms: _184  and  _187
REMARK   64  A    between atoms: _187  and  _188
REMARK   65  A    between atoms: _191  and  _193
REMARK   66  A    between atoms: _193  and  _194
REMARK   67  A    between atoms: _193  and  _196
REMARK   68  A    between atoms: _199  and  _201
REMARK   69  A    between atoms: _201  and  _202
REMARK   70  A    between atoms: _201  and  _204
REMARK   71  A    between atoms: _204  and  _205
REMARK   72  A    between atoms: _210  and  _212
REMARK   73  A    between atoms: _212  and  _213
REMARK   74  A    between atoms: _212  and  _215
REMARK   75  A    between atoms: _215  and  _216
REMARK   76  A    between atoms: _222  and  _224
REMARK   77  A    between atoms: _224  and  _225
REMARK   78  A    between atoms: _224  and  _227
REMARK   79  A    between atoms: _230  and  _232
REMARK   80  A    between atoms: _232  and  _233
REMARK   81  A    between atoms: _232  and  _235
REMARK   82  A    between atoms: _235  and  _236
REMARK   83  A    between atoms: _239  and  _241
REMARK   84  A    between atoms: _241  and  _242
REMARK   85  A    between atoms: _245  and  _247
REMARK   86  A    between atoms: _247  and  _248
REMARK   87  A    between atoms: _247  and  _250
REMARK   88  A    between atoms: _253  and  _255
REMARK   89  A    between atoms: _255  and  _256
REMARK   90  A    between atoms: _255  and  _258
REMARK   91  A    between atoms: _258  and  _259
REMARK   92  A    between atoms: _262  and  _264
REMARK   93  A    between atoms: _264  and  _265
REMARK   94  A    between atoms: _264  and  _267
REMARK   95  A    between atoms: _267  and  _268
REMARK   96  A    between atoms: _270  and  _272
REMARK   97  A    between atoms: _272  and  _273
REMARK   98  A    between atoms: _272  and  _275
REMARK   99  A    between atoms: _275  and  _276
REMARK  100  A    between atoms: _279  and  _281
REMARK  101  A    between atoms: _281  and  _282
REMARK  102  A    between atoms: _281  and  _284
REMARK  103  A    between atoms: _284  and  _285
REMARK  104  A    between atoms: _288  and  _290
REMARK  105  A    between atoms: _290  and  _291
REMARK  106  A    between atoms: _290  and  _293
REMARK  107  A    between atoms: _293  and  _294
REMARK  108  A    between atoms: _298  and  _299
REMARK  109  A    between atoms: _305  and  _306
REMARK  110  A    between atoms: _311  and  _313
REMARK  111  A    between atoms: _313  and  _314
REMARK  112  A    between atoms: _313  and  _316
REMARK  113  A    between atoms: _316  and  _317
REMARK  114  A    between atoms: _320  and  _322
REMARK  115  A    between atoms: _322  and  _323
REMARK  116  A    between atoms: _322  and  _325
REMARK  117  A    between atoms: _325  and  _326
REMARK  118  A    between atoms: _329  and  _331
REMARK  119  A    between atoms: _331  and  _332
REMARK  120  A    between atoms: _331  and  _334
REMARK  121  A    between atoms: _336  and  _338
REMARK  122  A    between atoms: _338  and  _339
REMARK  123  A    between atoms: _338  and  _341
REMARK  124  A    between atoms: _344  and  _346
REMARK  125  A    between atoms: _346  and  _347
REMARK  126  A    between atoms: _346  and  _349
REMARK  127  A    between atoms: _349  and  _350
REMARK  128  A    between atoms: _360  and  _362
REMARK  129  A    between atoms: _362  and  _363
REMARK  130  A    between atoms: _362  and  _365
REMARK  131  A    between atoms: _365  and  _366
REMARK  132  A    between atoms: _366  and  _367
REMARK  133  A    between atoms: _367  and  _368
REMARK                            x       y       z     vdW  Elec       q    Type
REMARK                         _______ _______ _______ _____ _____    ______ ____
ROOT
ATOM      1  O   HOH     1      18.668   4.280   7.626  0.00  0.00    +0.000 OA
ENDROOT
TORSDOF 0
REMARK  Name = ../refined-set-2016/4q7w/4q7w_pocket.pdb
REMARK  133 active torsions:
REMARK  status: ('A' for Active; 'I' for Inactive)
REMARK    1  A    between atoms: _1  and  _3
REMARK    2  A    between atoms: _3  and  _4
REMARK    3  A    between atoms: _3  and  _6
REMARK    4  A    between atoms: _6  and  _7
REMARK    5  A    between atoms: _17  and  _19
REMARK    6  A    between atoms: _19  and  _20
REMARK    7  A    between atoms: _19  and  _22
REMARK    8  A    between atoms: _22  and  _23
REMARK    9  A    between atoms: _28  and  _29
REMARK   10  A    between atoms: _31  and  _33
REMARK   11  A    between atoms: _33  and  _34
REMARK   12  A    between atoms: _33  and  _36
REMARK   13  A    between atoms: _36  and  _37
REMARK   14  A    between atoms: _40  and  _41
REMARK   15  A    between atoms: _46  and  _48
REMARK   16  A    between atoms: _48  and  _49
REMARK   17  A    between atoms: _48  and  _51
REMARK   18  A    between atoms: _51  and  _52
REMARK   19  A    between atoms: _57  and  _59
REMARK   20  A    between atoms: _59  and  _60
REMARK   21  A    between atoms: _59  and  _62
REMARK   22  A    between atoms: _62  and  _63
REMARK   23  A    between atoms: _68  and  _70
REMARK   24  A    between atoms: _70  and  _71
REMARK   25  A    between atoms: _74  and  _76
REMARK   26  A    between atoms: _76  and  _77
REMARK   27  A    between atoms: _76  and  _79
REMARK   28  A    between atoms: _79  and  _80
REMARK   29  A    between atoms: _85  and  _87
REMARK   30  A    between atoms: _87  and  _88
REMARK   31  A    between atoms: _87  and  _90
REMARK   32  A    between atoms: _90  and  _91
REMARK   33  A    between atoms: _94  and  _96
REMARK   34  A    between atoms: _96  and  _97
REMARK   35  A    between atoms: _96  and  _99
REMARK   36  A    between atoms: _99  and  _100
REMARK   37  A    between atoms: _100  and  _101
REMARK   38  A    between atoms: _106  and  _108
REMARK   39  A    between atoms: _119  and  _122
REMARK   40  A    between atoms: _122  and  _123
REMARK   41  A    between atoms: _131  and  _132
REMARK   42  A    between atoms: _140  and  _142
REMARK   43  A    between atoms: _142  and  _143
REMARK   44  A    between atoms: _142  and  _145
REMARK   45  A    between atoms: _145  and  _146
REMARK   46  A    between atoms: _146  and  _147
REMARK   47  A    between atoms: _150  and  _152
REMARK   48  A    between atoms: _152  and  _153
REMARK   49  A    between atoms: _152  and  _155
REMARK   50  A    between atoms: _155  and  _156
REMARK   51  A    between atoms: _161  and  _163
REMARK   52  A    between atoms: _163  and  _164
REMARK   53  A    between atoms: _163  and  _166
REMARK   54  A    between atoms: _166  and  _167
REMARK   55  A    between atoms: _167  and  _168
REMARK   56  A    between atoms: _171  and  _173
REMARK   57  A    between atoms: _173  and  _174
REMARK   58  A    between atoms: _173  and  _176
REMARK   59  A    between atoms: _176  and  _177
REMARK   60  A    between atoms: _178  and  ZN_377
REMARK   61  A    between atoms: _182  and  _184
REMARK   62  A    between atoms: _184  and  _185
REMARK   63  A    between atoms: _184  and  _187
REMARK   64  A    between atoms: _187  and  _188
REMARK   65  A    between atoms: _191  and  _193
REMARK   66  A    between atoms: _193  and  _194
REMARK   67  A    between atoms: _193  and  _196
REMARK   68  A    between atoms: _199  and  _201
REMARK   69  A    between atoms: _201  and  _202
REMARK   70  A    between atoms: _201  and  _204
REMARK   71  A    between atoms: _204  and  _205
REMARK   72  A    between atoms: _210  and  _212
REMARK   73  A    between atoms: _212  and  _213
REMARK   74  A    between atoms: _212  and  _215
REMARK   75  A    between atoms: _215  and  _216
REMARK   76  A    between atoms: _222  and  _224
REMARK   77  A    between atoms: _224  and  _225
REMARK   78  A    between atoms: _224  and  _227
REMARK   79  A    between atoms: _230  and  _232
REMARK   80  A    between atoms: _232  and  _233
REMARK   81  A    between atoms: _232  and  _235
REMARK   82  A    between atoms: _235  and  _236
REMARK   83  A    between atoms: _239  and  _241
REMARK   84  A    between atoms: _241  and  _242
REMARK   85  A    between atoms: _245  and  _247
REMARK   86  A    between atoms: _247  and  _248
REMARK   87  A    between atoms: _247  and  _250
REMARK   88  A    between atoms: _253  and  _255
REMARK   89  A    between atoms: _255  and  _256
REMARK   90  A    between atoms: _255  and  _258
REMARK   91  A    between atoms: _258  and  _259
REMARK   92  A    between atoms: _262  and  _264
REMARK   93  A    between atoms: _264  and  _265
REMARK   94  A    between atoms: _264  and  _267
REMARK   95  A    between atoms: _267  and  _268
REMARK   96  A    between atoms: _270  and  _272
REMARK   97  A    between atoms: _272  and  _273
REMARK   98  A    between atoms: _272  and  _275
REMARK   99  A    between atoms: _275  and  _276
REMARK  100  A    between atoms: _279  and  _281
REMARK  101  A    between atoms: _281  and  _282
REMARK  102  A    between atoms: _281  and  _284
REMARK  103  A    between atoms: _284  and  _285
REMARK  104  A    between atoms: _288  and  _290
REMARK  105  A    between atoms: _290  and  _291
REMARK  106  A    between atoms: _290  and  _293
REMARK  107  A    between atoms: _293  and  _294
REMARK  108  A    between atoms: _298  and  _299
REMARK  109  A    between atoms: _305  and  _306
REMARK  110  A    between atoms: _311  and  _313
REMARK  111  A    between atoms: _313  and  _314
REMARK  112  A    between atoms: _313  and  _316
REMARK  113  A    between atoms: _316  and  _317
REMARK  114  A    between atoms: _320  and  _322
REMARK  115  A    between atoms: _322  and  _323
REMARK  116  A    between atoms: _322  and  _325
REMARK  117  A    between atoms: _325  and  _326
REMARK  118  A    between atoms: _329  and  _331
REMARK  119  A    between atoms: _331  and  _332
REMARK  120  A    between atoms: _331  and  _334
REMARK  121  A    between atoms: _336  and  _338
REMARK  122  A    between atoms: _338  and  _339
REMARK  123  A    between atoms: _338  and  _341
REMARK  124  A    between atoms: _344  and  _346
REMARK  125  A    between atoms: _346  and  _347
REMARK  126  A    between atoms: _346  and  _349
REMARK  127  A    between atoms: _349  and  _350
REMARK  128  A    between atoms: _360  and  _362
REMARK  129  A    between atoms: _362  and  _363
REMARK  130  A    between atoms: _362  and  _365
REMARK  131  A    between atoms: _365  and  _366
REMARK  132  A    between atoms: _366  and  _367
REMARK  133  A    between atoms: _367  and  _368
REMARK                            x       y       z     vdW  Elec       q    Type
REMARK                         _______ _______ _______ _____ _____    ______ ____
ROOT
ATOM      1  O   HOH     1      18.999   6.092  13.325  0.00  0.00    +0.000 OA
ENDROOT
TORSDOF 0
