REMARK  Name = ../refined-set-2016/2pmk/2pmk_pocket.pdb
REMARK  125 active torsions:
REMARK  status: ('A' for Active; 'I' for Inactive)
REMARK    1  A    between atoms: _1  and  _3
REMARK    2  A    between atoms: _3  and  _4
REMARK    3  A    between atoms: _3  and  _6
REMARK    4  A    between atoms: _6  and  _7
REMARK    5  A    between atoms: _13  and  _15
REMARK    6  A    between atoms: _15  and  _16
REMARK    7  A    between atoms: _15  and  _18
REMARK    8  A    between atoms: _18  and  _19
REMARK    9  A    between atoms: _19  and  _20
REMARK   10  A    between atoms: _20  and  _21
REMARK   11  A    between atoms: _30  and  _32
REMARK   12  A    between atoms: _32  and  _33
REMARK   13  A    between atoms: _32  and  _35
REMARK   14  A    between atoms: _35  and  _36
REMARK   15  A    between atoms: _41  and  _42
REMARK   16  A    between atoms: _44  and  _46
REMARK   17  A    between atoms: _46  and  _47
REMARK   18  A    between atoms: _46  and  _49
REMARK   19  A    between atoms: _49  and  _50
REMARK   20  A    between atoms: _50  and  _51
REMARK   21  A    between atoms: _51  and  _52
REMARK   22  A    between atoms: _52  and  _53
REMARK   23  A    between atoms: _57  and  _59
REMARK   24  A    between atoms: _59  and  _60
REMARK   25  A    between atoms: _59  and  _62
REMARK   26  A    between atoms: _62  and  _63
REMARK   27  A    between atoms: _66  and  _67
REMARK   28  A    between atoms: _72  and  _74
REMARK   29  A    between atoms: _74  and  _75
REMARK   30  A    between atoms: _74  and  _77
REMARK   31  A    between atoms: _80  and  _82
REMARK   32  A    between atoms: _82  and  _83
REMARK   33  A    between atoms: _82  and  _85
REMARK   34  A    between atoms: _85  and  _86
REMARK   35  A    between atoms: _89  and  _91
REMARK   36  A    between atoms: _91  and  _92
REMARK   37  A    between atoms: _91  and  _94
REMARK   38  A    between atoms: _94  and  _95
REMARK   39  A    between atoms: _98  and  _100
REMARK   40  A    between atoms: _100  and  _101
REMARK   41  A    between atoms: _100  and  _103
REMARK   42  A    between atoms: _103  and  _104
REMARK   43  A    between atoms: _107  and  _109
REMARK   44  A    between atoms: _109  and  _110
REMARK   45  A    between atoms: _109  and  _112
REMARK   46  A    between atoms: _115  and  _117
REMARK   47  A    between atoms: _117  and  _118
REMARK   48  A    between atoms: _120  and  _122
REMARK   49  A    between atoms: _122  and  _123
REMARK   50  A    between atoms: _122  and  _125
REMARK   51  A    between atoms: _125  and  _126
REMARK   52  A    between atoms: _126  and  _127
REMARK   53  A    between atoms: _127  and  _128
REMARK   54  A    between atoms: _137  and  _139
REMARK   55  A    between atoms: _139  and  _140
REMARK   56  A    between atoms: _139  and  _142
REMARK   57  A    between atoms: _142  and  _143
REMARK   58  A    between atoms: _145  and  _147
REMARK   59  A    between atoms: _147  and  _148
REMARK   60  A    between atoms: _150  and  _152
REMARK   61  A    between atoms: _152  and  _153
REMARK   62  A    between atoms: _152  and  _155
REMARK   63  A    between atoms: _155  and  _156
REMARK   64  A    between atoms: _158  and  _160
REMARK   65  A    between atoms: _160  and  _161
REMARK   66  A    between atoms: _163  and  _165
REMARK   67  A    between atoms: _165  and  _166
REMARK   68  A    between atoms: _165  and  _168
REMARK   69  A    between atoms: _168  and  _169
REMARK   70  A    between atoms: _169  and  _170
REMARK   71  A    between atoms: _170  and  _171
REMARK   72  A    between atoms: _171  and  _172
REMARK   73  A    between atoms: _176  and  _178
REMARK   74  A    between atoms: _178  and  _179
REMARK   75  A    between atoms: _178  and  _181
REMARK   76  A    between atoms: _181  and  _182
REMARK   77  A    between atoms: _184  and  _186
REMARK   78  A    between atoms: _186  and  _187
REMARK   79  A    between atoms: _186  and  _189
REMARK   80  A    between atoms: _189  and  _190
REMARK   81  A    between atoms: _193  and  _195
REMARK   82  A    between atoms: _195  and  _196
REMARK   83  A    between atoms: _195  and  _198
REMARK   84  A    between atoms: _198  and  _199
REMARK   85  A    between atoms: _202  and  _204
REMARK   86  A    between atoms: _204  and  _205
REMARK   87  A    between atoms: _204  and  _207
REMARK   88  A    between atoms: _207  and  _208
REMARK   89  A    between atoms: _211  and  _213
REMARK   90  A    between atoms: _213  and  _214
REMARK   91  A    between atoms: _213  and  _216
REMARK   92  A    between atoms: _216  and  _217
REMARK   93  A    between atoms: _217  and  _218
REMARK   94  A    between atoms: _218  and  _219
REMARK   95  A    between atoms: _219  and  _220
REMARK   96  A    between atoms: _224  and  _226
REMARK   97  A    between atoms: _226  and  _227
REMARK   98  A    between atoms: _226  and  _229
REMARK   99  A    between atoms: _229  and  _230
REMARK  100  A    between atoms: _235  and  _236
REMARK  101  A    between atoms: _238  and  _240
REMARK  102  A    between atoms: _240  and  _241
REMARK  103  A    between atoms: _240  and  _243
REMARK  104  A    between atoms: _243  and  _244
REMARK  105  A    between atoms: _244  and  _245
REMARK  106  A    between atoms: _248  and  _250
REMARK  107  A    between atoms: _250  and  _251
REMARK  108  A    between atoms: _250  and  _253
REMARK  109  A    between atoms: _253  and  _254
REMARK  110  A    between atoms: _257  and  _259
REMARK  111  A    between atoms: _259  and  _260
REMARK  112  A    between atoms: _263  and  _265
REMARK  113  A    between atoms: _265  and  _266
REMARK  114  A    between atoms: _265  and  _268
REMARK  115  A    between atoms: _268  and  _269
REMARK  116  A    between atoms: _269  and  _270
REMARK  117  A    between atoms: _272  and  _274
REMARK  118  A    between atoms: _274  and  _275
REMARK  119  A    between atoms: _274  and  _277
REMARK  120  A    between atoms: _277  and  _278
REMARK  121  A    between atoms: _278  and  _279
REMARK  122  A    between atoms: _279  and  _280
REMARK  123  A    between atoms: _280  and  _281
REMARK  124  A    between atoms: _285  and  _287
REMARK  125  A    between atoms: _287  and  _288
REMARK                            x       y       z     vdW  Elec       q    Type
REMARK                         _______ _______ _______ _____ _____    ______ ____
ROOT
ATOM      1  C   ARG A   2     -38.293  21.813 -10.373  0.00  0.00    +0.241 C 
ATOM      2  O   ARG A   2     -38.911  22.234  -9.398  0.00  0.00    -0.273 OA
ATOM      3  N   TYR A   3     -37.225  22.450 -10.852  0.00  0.00    -0.297 N 
ATOM      4  H   TYR A   3     -36.746  22.096 -11.705  0.00  0.00    +0.150 HD
ENDROOT
BRANCH   3   5
ATOM      5  CA  TYR A   3     -36.723  23.658 -10.170  0.00  0.00    +0.153 C 
BRANCH   5   6
ATOM      6  C   TYR A   3     -37.547  24.922 -10.364  0.00  0.00    +0.241 C 
ATOM      7  O   TYR A   3     -37.533  25.796  -9.490  0.00  0.00    -0.273 OA
ATOM      8  N   LYS A   4     -38.225  25.021 -11.497  0.00  0.00    -0.298 N 
ATOM      9  H   LYS A   4     -38.208  24.225 -12.166  0.00  0.00    +0.150 HD
BRANCH   8  10
ATOM     10  CA  LYS A   4     -39.002  26.223 -11.838  0.00  0.00    +0.137 C 
BRANCH  10  11
ATOM     11  C   LYS A   4     -40.299  25.836 -12.502  0.00  0.00    +0.227 C 
ATOM     12  O   LYS A   4     -40.373  24.785 -13.141  0.00  0.00    -0.286 OA
ENDBRANCH  10  11
BRANCH  10  13
ATOM     13  CB  LYS A   4     -38.181  27.129 -12.768  0.00  0.00    +0.028 C 
BRANCH  13  14
ATOM     14  CG  LYS A   4     -36.960  27.746 -12.100  0.00  0.00    -0.000 C 
BRANCH  14  15
ATOM     15  CD  LYS A   4     -36.226  28.691 -13.045  0.00  0.00    -0.024 C 
BRANCH  15  16
ATOM     16  CE  LYS A   4     -35.318  27.933 -13.987  0.00  0.00    -0.086 C 
BRANCH  16  17
ATOM     17  NZ  LYS A   4     -34.334  28.824 -14.687  0.00  0.00    +0.380 N 
ATOM     18  HZ1 LYS A   4     -33.736  29.300 -13.982  0.00  0.00    -0.089 HD
ATOM     19  HZ2 LYS A   4     -34.848  29.536 -15.244  0.00  0.00    -0.089 HD
ATOM     20  HZ3 LYS A   4     -33.738  28.252 -15.319  0.00  0.00    -0.089 HD
ENDBRANCH  16  17
ENDBRANCH  15  16
ENDBRANCH  14  15
ENDBRANCH  13  14
ENDBRANCH  10  13
ENDBRANCH   8  10
ENDBRANCH   5   6
BRANCH   5  21
ATOM     21  CB  TYR A   3     -35.265  23.940 -10.556  0.00  0.00    +0.055 C 
BRANCH  21  22
ATOM     22  CG  TYR A   3     -34.280  23.032  -9.853  0.00  0.00    -0.020 A 
ATOM     23  CD2 TYR A   3     -33.806  23.329  -8.598  0.00  0.00    -0.001 A 
ATOM     24  CE2 TYR A   3     -32.919  22.511  -7.945  0.00  0.00    +0.036 A 
ATOM     25  CZ  TYR A   3     -32.468  21.364  -8.528  0.00  0.00    +0.134 A 
ATOM     26  CE1 TYR A   3     -32.946  21.019  -9.773  0.00  0.00    +0.036 A 
ATOM     27  CD1 TYR A   3     -33.853  21.863 -10.440  0.00  0.00    -0.001 A 
BRANCH  25  28
ATOM     28  OH  TYR A   3     -31.586  20.538  -7.819  0.00  0.00    -0.506 OA
ATOM     29  HH  TYR A   3     -31.354  19.752  -8.374  0.00  0.00    +0.292 HD
ENDBRANCH  25  28
ENDBRANCH  21  22
ENDBRANCH   5  21
ENDBRANCH   3   5
BRANCH   1  30
ATOM     30  CA  ARG A   2     -38.738  20.519 -11.047  0.00  0.00    +0.149 C 
BRANCH  30  32
ATOM     31  C   PHE A   1     -39.163  18.395  -9.801  0.00  0.00    +0.239 C 
ATOM     32  N   ARG A   2     -39.397  19.690 -10.005  0.00  0.00    -0.297 N 
ATOM     33  H   ARG A   2     -40.093  20.156  -9.389  0.00  0.00    +0.150 HD
ATOM     34  O   PHE A   1     -38.554  17.679 -10.571  0.00  0.00    -0.274 OA
BRANCH  31  35
ATOM     35  CA  PHE A   1     -39.728  17.821  -8.517  0.00  0.00    +0.149 C 
BRANCH  35  36
ATOM     36  N   PHE A   1     -40.379  16.515  -8.714  0.00  0.00    -0.238 NA
ATOM     37  H   PHE A   1     -39.988  15.848  -9.409  0.00  0.00    +0.142 HD
ENDBRANCH  35  36
BRANCH  35  38
ATOM     38  CB  PHE A   1     -38.596  17.722  -7.486  0.00  0.00    +0.053 C 
BRANCH  38  39
ATOM     39  CG  PHE A   1     -37.879  19.017  -7.284  0.00  0.00    -0.020 A 
ATOM     40  CD2 PHE A   1     -38.484  20.029  -6.562  0.00  0.00    -0.004 A 
ATOM     41  CE2 PHE A   1     -37.846  21.278  -6.423  0.00  0.00    -0.000 A 
ATOM     42  CZ  PHE A   1     -36.607  21.495  -6.994  0.00  0.00    -0.000 A 
ATOM     43  CE1 PHE A   1     -36.006  20.491  -7.685  0.00  0.00    -0.000 A 
ATOM     44  CD1 PHE A   1     -36.626  19.278  -7.854  0.00  0.00    -0.004 A 
ENDBRANCH  38  39
ENDBRANCH  35  38
ENDBRANCH  31  35
ENDBRANCH  30  32
BRANCH  30  45
ATOM     45  CB  ARG A   2     -39.710  20.837 -12.188  0.00  0.00    +0.033 C 
BRANCH  45  46
ATOM     46  CG  ARG A   2     -40.752  21.832 -11.841  0.00  0.00    +0.045 C 
BRANCH  46  47
ATOM     47  CD  ARG A   2     -41.769  21.972 -12.973  0.00  0.00    +0.174 C 
BRANCH  47  48
ATOM     48  NE  ARG A   2     -42.635  20.789 -13.026  0.00  0.00    -0.265 N 
ATOM     49  HE  ARG A   2     -42.725  20.217 -12.162  0.00  0.00    +0.259 HD
ATOM     50  CZ  ARG A   2     -43.313  20.396 -14.101  0.00  0.00    +0.342 C 
ATOM     51  NH2 ARG A   2     -44.072  19.304 -14.049  0.00  0.00    -0.292 N 
ATOM     52 HH21 ARG A   2     -44.136  18.757 -13.167  0.00  0.00    +0.255 HD
ATOM     53 HH22 ARG A   2     -44.601  18.998 -14.890  0.00  0.00    +0.255 HD
ATOM     54  NH1 ARG A   2     -43.246  21.086 -15.231  0.00  0.00    -0.292 N 
ATOM     55 HH11 ARG A   2     -42.659  21.943 -15.283  0.00  0.00    +0.255 HD
ATOM     56 HH12 ARG A   2     -43.780  20.770 -16.066  0.00  0.00    +0.255 HD
ENDBRANCH  47  48
ENDBRANCH  46  47
ENDBRANCH  45  46
ENDBRANCH  30  45
ENDBRANCH   1  30
TORSDOF 22
REMARK  Name = ../refined-set-2016/2pmk/2pmk_pocket.pdb
REMARK  125 active torsions:
REMARK  status: ('A' for Active; 'I' for Inactive)
REMARK    1  A    between atoms: _1  and  _3
REMARK    2  A    between atoms: _3  and  _4
REMARK    3  A    between atoms: _3  and  _6
REMARK    4  A    between atoms: _6  and  _7
REMARK    5  A    between atoms: _13  and  _15
REMARK    6  A    between atoms: _15  and  _16
REMARK    7  A    between atoms: _15  and  _18
REMARK    8  A    between atoms: _18  and  _19
REMARK    9  A    between atoms: _19  and  _20
REMARK   10  A    between atoms: _20  and  _21
REMARK   11  A    between atoms: _30  and  _32
REMARK   12  A    between atoms: _32  and  _33
REMARK   13  A    between atoms: _32  and  _35
REMARK   14  A    between atoms: _35  and  _36
REMARK   15  A    between atoms: _41  and  _42
REMARK   16  A    between atoms: _44  and  _46
REMARK   17  A    between atoms: _46  and  _47
REMARK   18  A    between atoms: _46  and  _49
REMARK   19  A    between atoms: _49  and  _50
REMARK   20  A    between atoms: _50  and  _51
REMARK   21  A    between atoms: _51  and  _52
REMARK   22  A    between atoms: _52  and  _53
REMARK   23  A    between atoms: _57  and  _59
REMARK   24  A    between atoms: _59  and  _60
REMARK   25  A    between atoms: _59  and  _62
REMARK   26  A    between atoms: _62  and  _63
REMARK   27  A    between atoms: _66  and  _67
REMARK   28  A    between atoms: _72  and  _74
REMARK   29  A    between atoms: _74  and  _75
REMARK   30  A    between atoms: _74  and  _77
REMARK   31  A    between atoms: _80  and  _82
REMARK   32  A    between atoms: _82  and  _83
REMARK   33  A    between atoms: _82  and  _85
REMARK   34  A    between atoms: _85  and  _86
REMARK   35  A    between atoms: _89  and  _91
REMARK   36  A    between atoms: _91  and  _92
REMARK   37  A    between atoms: _91  and  _94
REMARK   38  A    between atoms: _94  and  _95
REMARK   39  A    between atoms: _98  and  _100
REMARK   40  A    between atoms: _100  and  _101
REMARK   41  A    between atoms: _100  and  _103
REMARK   42  A    between atoms: _103  and  _104
REMARK   43  A    between atoms: _107  and  _109
REMARK   44  A    between atoms: _109  and  _110
REMARK   45  A    between atoms: _109  and  _112
REMARK   46  A    between atoms: _115  and  _117
REMARK   47  A    between atoms: _117  and  _118
REMARK   48  A    between atoms: _120  and  _122
REMARK   49  A    between atoms: _122  and  _123
REMARK   50  A    between atoms: _122  and  _125
REMARK   51  A    between atoms: _125  and  _126
REMARK   52  A    between atoms: _126  and  _127
REMARK   53  A    between atoms: _127  and  _128
REMARK   54  A    between atoms: _137  and  _139
REMARK   55  A    between atoms: _139  and  _140
REMARK   56  A    between atoms: _139  and  _142
REMARK   57  A    between atoms: _142  and  _143
REMARK   58  A    between atoms: _145  and  _147
REMARK   59  A    between atoms: _147  and  _148
REMARK   60  A    between atoms: _150  and  _152
REMARK   61  A    between atoms: _152  and  _153
REMARK   62  A    between atoms: _152  and  _155
REMARK   63  A    between atoms: _155  and  _156
REMARK   64  A    between atoms: _158  and  _160
REMARK   65  A    between atoms: _160  and  _161
REMARK   66  A    between atoms: _163  and  _165
REMARK   67  A    between atoms: _165  and  _166
REMARK   68  A    between atoms: _165  and  _168
REMARK   69  A    between atoms: _168  and  _169
REMARK   70  A    between atoms: _169  and  _170
REMARK   71  A    between atoms: _170  and  _171
REMARK   72  A    between atoms: _171  and  _172
REMARK   73  A    between atoms: _176  and  _178
REMARK   74  A    between atoms: _178  and  _179
REMARK   75  A    between atoms: _178  and  _181
REMARK   76  A    between atoms: _181  and  _182
REMARK   77  A    between atoms: _184  and  _186
REMARK   78  A    between atoms: _186  and  _187
REMARK   79  A    between atoms: _186  and  _189
REMARK   80  A    between atoms: _189  and  _190
REMARK   81  A    between atoms: _193  and  _195
REMARK   82  A    between atoms: _195  and  _196
REMARK   83  A    between atoms: _195  and  _198
REMARK   84  A    between atoms: _198  and  _199
REMARK   85  A    between atoms: _202  and  _204
REMARK   86  A    between atoms: _204  and  _205
REMARK   87  A    between atoms: _204  and  _207
REMARK   88  A    between atoms: _207  and  _208
REMARK   89  A    between atoms: _211  and  _213
REMARK   90  A    between atoms: _213  and  _214
REMARK   91  A    between atoms: _213  and  _216
REMARK   92  A    between atoms: _216  and  _217
REMARK   93  A    between atoms: _217  and  _218
REMARK   94  A    between atoms: _218  and  _219
REMARK   95  A    between atoms: _219  and  _220
REMARK   96  A    between atoms: _224  and  _226
REMARK   97  A    between atoms: _226  and  _227
REMARK   98  A    between atoms: _226  and  _229
REMARK   99  A    between atoms: _229  and  _230
REMARK  100  A    between atoms: _235  and  _236
REMARK  101  A    between atoms: _238  and  _240
REMARK  102  A    between atoms: _240  and  _241
REMARK  103  A    between atoms: _240  and  _243
REMARK  104  A    between atoms: _243  and  _244
REMARK  105  A    between atoms: _244  and  _245
REMARK  106  A    between atoms: _248  and  _250
REMARK  107  A    between atoms: _250  and  _251
REMARK  108  A    between atoms: _250  and  _253
REMARK  109  A    between atoms: _253  and  _254
REMARK  110  A    between atoms: _257  and  _259
REMARK  111  A    between atoms: _259  and  _260
REMARK  112  A    between atoms: _263  and  _265
REMARK  113  A    between atoms: _265  and  _266
REMARK  114  A    between atoms: _265  and  _268
REMARK  115  A    between atoms: _268  and  _269
REMARK  116  A    between atoms: _269  and  _270
REMARK  117  A    between atoms: _272  and  _274
REMARK  118  A    between atoms: _274  and  _275
REMARK  119  A    between atoms: _274  and  _277
REMARK  120  A    between atoms: _277  and  _278
REMARK  121  A    between atoms: _278  and  _279
REMARK  122  A    between atoms: _279  and  _280
REMARK  123  A    between atoms: _280  and  _281
REMARK  124  A    between atoms: _285  and  _287
REMARK  125  A    between atoms: _287  and  _288
REMARK                            x       y       z     vdW  Elec       q    Type
REMARK                         _______ _______ _______ _____ _____    ______ ____
ROOT
ATOM      1  CA  VAL A   3     -38.905  17.372 -14.213  0.00  0.00    +0.149 C 
ENDROOT
BRANCH   1   4
ATOM      2  C   PRO A   2     -38.092  19.338 -15.424  0.00  0.00    +0.241 C 
ATOM      3  O   PRO A   2     -37.537  19.784 -14.438  0.00  0.00    -0.273 OA
ATOM      4  N   VAL A   3     -38.822  18.234 -15.418  0.00  0.00    -0.297 N 
ATOM      5  H   VAL A   3     -39.348  17.965 -16.274  0.00  0.00    +0.150 HD
BRANCH   2   9
ATOM      6  C   SER A   1     -38.867  22.244 -16.183  0.00  0.00    +0.244 C 
ATOM      7  O   SER A   1     -39.935  21.748 -15.818  0.00  0.00    -0.273 OA
ATOM      8  N   PRO A   2     -37.852  21.499 -16.657  0.00  0.00    -0.272 N 
ATOM      9  CA  PRO A   2     -37.949  20.053 -16.768  0.00  0.00    +0.152 C 
ATOM     10  CB  PRO A   2     -36.612  19.657 -17.393  0.00  0.00    +0.031 C 
ATOM     11  CG  PRO A   2     -36.107  20.860 -18.012  0.00  0.00    +0.024 C 
ATOM     12  CD  PRO A   2     -36.560  21.984 -17.176  0.00  0.00    +0.094 C 
BRANCH   6  13
ATOM     13  CA  SER A   1     -38.678  23.766 -16.158  0.00  0.00    +0.175 C 
BRANCH  13  14
ATOM     14  N   SER A   1     -39.939  24.461 -15.900  0.00  0.00    -0.236 NA
ATOM     15  H   SER A   1     -40.145  24.800 -14.938  0.00  0.00    +0.142 HD
ENDBRANCH  13  14
BRANCH  13  16
ATOM     16  CB  SER A   1     -37.616  24.192 -15.128  0.00  0.00    +0.163 C 
BRANCH  16  17
ATOM     17  OG  SER A   1     -37.873  23.631 -13.836  0.00  0.00    -0.380 OA
ATOM     18  H   SER A   1     -38.758  23.937 -13.515  0.00  0.00    +0.211 HD
ENDBRANCH  16  17
ENDBRANCH  13  16
ENDBRANCH   6  13
ENDBRANCH   2   9
ENDBRANCH   1   4
BRANCH   1  19
ATOM     19  C   VAL A   3     -37.564  16.676 -13.955  0.00  0.00    +0.241 C 
ATOM     20  N   ILE A   4     -37.022  16.901 -12.765  0.00  0.00    -0.297 N 
ATOM     21  H   ILE A   4     -37.563  17.474 -12.086  0.00  0.00    +0.150 HD
ATOM     22  O   VAL A   3     -37.043  15.956 -14.815  0.00  0.00    -0.273 OA
BRANCH  20  23
ATOM     23  CA  ILE A   4     -35.716  16.397 -12.344  0.00  0.00    +0.149 C 
BRANCH  23  24
ATOM     24  C   ILE A   4     -35.814  15.122 -11.504  0.00  0.00    +0.241 C 
ATOM     25  N   LEU A   5     -36.903  14.996 -10.762  0.00  0.00    -0.298 N 
ATOM     26  H   LEU A   5     -37.591  15.775 -10.725  0.00  0.00    +0.150 HD
ATOM     27  O   ILE A   4     -34.870  14.304 -11.446  0.00  0.00    -0.273 OA
BRANCH  25  28
ATOM     28  CA  LEU A   5     -37.151  13.776  -9.994  0.00  0.00    +0.137 C 
BRANCH  28  29
ATOM     29  C   LEU A   5     -38.550  13.330 -10.341  0.00  0.00    +0.227 C 
ATOM     30  O   LEU A   5     -39.499  14.107 -10.248  0.00  0.00    -0.286 OA
ENDBRANCH  28  29
BRANCH  28  31
ATOM     31  CB  LEU A   5     -37.039  14.000  -8.493  0.00  0.00    +0.028 C 
BRANCH  31  32
ATOM     32  CG  LEU A   5     -35.676  14.485  -7.998  0.00  0.00    +0.002 C 
ATOM     33  CD2 LEU A   5     -35.737  14.792  -6.530  0.00  0.00    +0.000 C 
ATOM     34  CD1 LEU A   5     -34.614  13.414  -8.362  0.00  0.00    +0.000 C 
ENDBRANCH  31  32
ENDBRANCH  28  31
ENDBRANCH  25  28
ENDBRANCH  23  24
BRANCH  23  35
ATOM     35  CB  ILE A   4     -34.997  17.474 -11.474  0.00  0.00    +0.027 C 
ATOM     36  CG2 ILE A   4     -33.607  16.998 -10.982  0.00  0.00    +0.002 C 
BRANCH  35  37
ATOM     37  CG1 ILE A   4     -34.879  18.776 -12.262  0.00  0.00    +0.002 C 
ATOM     38  CD1 ILE A   4     -34.380  18.602 -13.689  0.00  0.00    +0.000 C 
ENDBRANCH  35  37
ENDBRANCH  23  35
ENDBRANCH  20  23
ENDBRANCH   1  19
BRANCH   1  39
ATOM     39  CB  VAL A   3     -40.006  16.288 -14.351  0.00  0.00    +0.027 C 
ATOM     40  CG2 VAL A   3     -40.007  15.349 -13.158  0.00  0.00    +0.002 C 
ATOM     41  CG1 VAL A   3     -41.375  16.939 -14.522  0.00  0.00    +0.002 C 
ENDBRANCH   1  39
TORSDOF 16
REMARK  Name = ../refined-set-2016/2pmk/2pmk_pocket.pdb
REMARK  125 active torsions:
REMARK  status: ('A' for Active; 'I' for Inactive)
REMARK    1  A    between atoms: _1  and  _3
REMARK    2  A    between atoms: _3  and  _4
REMARK    3  A    between atoms: _3  and  _6
REMARK    4  A    between atoms: _6  and  _7
REMARK    5  A    between atoms: _13  and  _15
REMARK    6  A    between atoms: _15  and  _16
REMARK    7  A    between atoms: _15  and  _18
REMARK    8  A    between atoms: _18  and  _19
REMARK    9  A    between atoms: _19  and  _20
REMARK   10  A    between atoms: _20  and  _21
REMARK   11  A    between atoms: _30  and  _32
REMARK   12  A    between atoms: _32  and  _33
REMARK   13  A    between atoms: _32  and  _35
REMARK   14  A    between atoms: _35  and  _36
REMARK   15  A    between atoms: _41  and  _42
REMARK   16  A    between atoms: _44  and  _46
REMARK   17  A    between atoms: _46  and  _47
REMARK   18  A    between atoms: _46  and  _49
REMARK   19  A    between atoms: _49  and  _50
REMARK   20  A    between atoms: _50  and  _51
REMARK   21  A    between atoms: _51  and  _52
REMARK   22  A    between atoms: _52  and  _53
REMARK   23  A    between atoms: _57  and  _59
REMARK   24  A    between atoms: _59  and  _60
REMARK   25  A    between atoms: _59  and  _62
REMARK   26  A    between atoms: _62  and  _63
REMARK   27  A    between atoms: _66  and  _67
REMARK   28  A    between atoms: _72  and  _74
REMARK   29  A    between atoms: _74  and  _75
REMARK   30  A    between atoms: _74  and  _77
REMARK   31  A    between atoms: _80  and  _82
REMARK   32  A    between atoms: _82  and  _83
REMARK   33  A    between atoms: _82  and  _85
REMARK   34  A    between atoms: _85  and  _86
REMARK   35  A    between atoms: _89  and  _91
REMARK   36  A    between atoms: _91  and  _92
REMARK   37  A    between atoms: _91  and  _94
REMARK   38  A    between atoms: _94  and  _95
REMARK   39  A    between atoms: _98  and  _100
REMARK   40  A    between atoms: _100  and  _101
REMARK   41  A    between atoms: _100  and  _103
REMARK   42  A    between atoms: _103  and  _104
REMARK   43  A    between atoms: _107  and  _109
REMARK   44  A    between atoms: _109  and  _110
REMARK   45  A    between atoms: _109  and  _112
REMARK   46  A    between atoms: _115  and  _117
REMARK   47  A    between atoms: _117  and  _118
REMARK   48  A    between atoms: _120  and  _122
REMARK   49  A    between atoms: _122  and  _123
REMARK   50  A    between atoms: _122  and  _125
REMARK   51  A    between atoms: _125  and  _126
REMARK   52  A    between atoms: _126  and  _127
REMARK   53  A    between atoms: _127  and  _128
REMARK   54  A    between atoms: _137  and  _139
REMARK   55  A    between atoms: _139  and  _140
REMARK   56  A    between atoms: _139  and  _142
REMARK   57  A    between atoms: _142  and  _143
REMARK   58  A    between atoms: _145  and  _147
REMARK   59  A    between atoms: _147  and  _148
REMARK   60  A    between atoms: _150  and  _152
REMARK   61  A    between atoms: _152  and  _153
REMARK   62  A    between atoms: _152  and  _155
REMARK   63  A    between atoms: _155  and  _156
REMARK   64  A    between atoms: _158  and  _160
REMARK   65  A    between atoms: _160  and  _161
REMARK   66  A    between atoms: _163  and  _165
REMARK   67  A    between atoms: _165  and  _166
REMARK   68  A    between atoms: _165  and  _168
REMARK   69  A    between atoms: _168  and  _169
REMARK   70  A    between atoms: _169  and  _170
REMARK   71  A    between atoms: _170  and  _171
REMARK   72  A    between atoms: _171  and  _172
REMARK   73  A    between atoms: _176  and  _178
REMARK   74  A    between atoms: _178  and  _179
REMARK   75  A    between atoms: _178  and  _181
REMARK   76  A    between atoms: _181  and  _182
REMARK   77  A    between atoms: _184  and  _186
REMARK   78  A    between atoms: _186  and  _187
REMARK   79  A    between atoms: _186  and  _189
REMARK   80  A    between atoms: _189  and  _190
REMARK   81  A    between atoms: _193  and  _195
REMARK   82  A    between atoms: _195  and  _196
REMARK   83  A    between atoms: _195  and  _198
REMARK   84  A    between atoms: _198  and  _199
REMARK   85  A    between atoms: _202  and  _204
REMARK   86  A    between atoms: _204  and  _205
REMARK   87  A    between atoms: _204  and  _207
REMARK   88  A    between atoms: _207  and  _208
REMARK   89  A    between atoms: _211  and  _213
REMARK   90  A    between atoms: _213  and  _214
REMARK   91  A    between atoms: _213  and  _216
REMARK   92  A    between atoms: _216  and  _217
REMARK   93  A    between atoms: _217  and  _218
REMARK   94  A    between atoms: _218  and  _219
REMARK   95  A    between atoms: _219  and  _220
REMARK   96  A    between atoms: _224  and  _226
REMARK   97  A    between atoms: _226  and  _227
REMARK   98  A    between atoms: _226  and  _229
REMARK   99  A    between atoms: _229  and  _230
REMARK  100  A    between atoms: _235  and  _236
REMARK  101  A    between atoms: _238  and  _240
REMARK  102  A    between atoms: _240  and  _241
REMARK  103  A    between atoms: _240  and  _243
REMARK  104  A    between atoms: _243  and  _244
REMARK  105  A    between atoms: _244  and  _245
REMARK  106  A    between atoms: _248  and  _250
REMARK  107  A    between atoms: _250  and  _251
REMARK  108  A    between atoms: _250  and  _253
REMARK  109  A    between atoms: _253  and  _254
REMARK  110  A    between atoms: _257  and  _259
REMARK  111  A    between atoms: _259  and  _260
REMARK  112  A    between atoms: _263  and  _265
REMARK  113  A    between atoms: _265  and  _266
REMARK  114  A    between atoms: _265  and  _268
REMARK  115  A    between atoms: _268  and  _269
REMARK  116  A    between atoms: _269  and  _270
REMARK  117  A    between atoms: _272  and  _274
REMARK  118  A    between atoms: _274  and  _275
REMARK  119  A    between atoms: _274  and  _277
REMARK  120  A    between atoms: _277  and  _278
REMARK  121  A    between atoms: _278  and  _279
REMARK  122  A    between atoms: _279  and  _280
REMARK  123  A    between atoms: _280  and  _281
REMARK  124  A    between atoms: _285  and  _287
REMARK  125  A    between atoms: _287  and  _288
REMARK                            x       y       z     vdW  Elec       q    Type
REMARK                         _______ _______ _______ _____ _____    ______ ____
ROOT
ATOM      1  CA  GLY A   8     -30.769  13.956 -10.074  0.00  0.00    +0.176 C 
ENDROOT
BRANCH   1   2
ATOM      2  C   GLY A   8     -30.256  13.580  -8.700  0.00  0.00    +0.243 C 
ATOM      3  O   GLY A   8     -30.980  13.741  -7.711  0.00  0.00    -0.273 OA
ATOM      4  N   LYS A   9     -29.007  13.089  -8.615  0.00  0.00    -0.297 N 
ATOM      5  H   LYS A   9     -28.421  13.050  -9.473  0.00  0.00    +0.150 HD
BRANCH   4   6
ATOM      6  CA  LYS A   9     -28.442  12.603  -7.337  0.00  0.00    +0.149 C 
BRANCH   6   7
ATOM      7  C   LYS A   9     -28.392  13.705  -6.292  0.00  0.00    +0.241 C 
ATOM      8  O   LYS A   9     -28.920  13.539  -5.178  0.00  0.00    -0.273 OA
ATOM      9  N   SER A  10     -27.772  14.830  -6.613  0.00  0.00    -0.295 N 
ATOM     10  H   SER A  10     -27.361  14.954  -7.560  0.00  0.00    +0.150 HD
BRANCH   9  11
ATOM     11  CA  SER A  10     -27.672  15.904  -5.609  0.00  0.00    +0.178 C 
BRANCH  11  12
ATOM     12  C   SER A  10     -29.067  16.510  -5.338  0.00  0.00    +0.243 C 
ATOM     13  O   SER A  10     -29.365  16.915  -4.213  0.00  0.00    -0.273 OA
ATOM     14  N   THR A  11     -29.907  16.574  -6.364  0.00  0.00    -0.295 N 
ATOM     15  H   THR A  11     -29.601  16.257  -7.306  0.00  0.00    +0.150 HD
BRANCH  14  16
ATOM     16  CA  THR A  11     -31.279  17.096  -6.170  0.00  0.00    +0.176 C 
BRANCH  16  17
ATOM     17  C   THR A  11     -31.995  16.316  -5.067  0.00  0.00    +0.243 C 
ATOM     18  O   THR A  11     -32.647  16.902  -4.196  0.00  0.00    -0.273 OA
ATOM     19  N   LEU A  12     -31.891  14.978  -5.095  0.00  0.00    -0.297 N 
ATOM     20  H   LEU A  12     -31.359  14.528  -5.867  0.00  0.00    +0.150 HD
BRANCH  19  21
ATOM     21  CA  LEU A  12     -32.497  14.147  -4.084  0.00  0.00    +0.149 C 
BRANCH  21  22
ATOM     22  C   LEU A  12     -32.037  14.614  -2.684  0.00  0.00    +0.241 C 
ATOM     23  O   LEU A  12     -32.847  14.804  -1.764  0.00  0.00    -0.273 OA
ATOM     24  N   THR A  13     -30.730  14.851  -2.498  0.00  0.00    -0.295 N 
ATOM     25  H   THR A  13     -30.070  14.741  -3.294  0.00  0.00    +0.150 HD
BRANCH  24  26
ATOM     26  CA  THR A  13     -30.225  15.258  -1.203  0.00  0.00    +0.176 C 
BRANCH  26  27
ATOM     27  C   THR A  13     -30.656  16.666  -0.802  0.00  0.00    +0.243 C 
ATOM     28  O   THR A  13     -30.801  16.945   0.397  0.00  0.00    -0.273 OA
ATOM     29  N   LYS A  14     -30.890  17.539  -1.778  0.00  0.00    -0.298 N 
ATOM     30  H   LYS A  14     -30.715  17.245  -2.760  0.00  0.00    +0.150 HD
BRANCH  29  31
ATOM     31  CA  LYS A  14     -31.386  18.902  -1.529  0.00  0.00    +0.137 C 
BRANCH  31  32
ATOM     32  C   LYS A  14     -32.789  18.821  -0.964  0.00  0.00    +0.227 C 
ATOM     33  O   LYS A  14     -33.129  19.606  -0.095  0.00  0.00    -0.286 OA
ENDBRANCH  31  32
BRANCH  31  34
ATOM     34  CB  LYS A  14     -31.378  19.772  -2.791  0.00  0.00    +0.028 C 
BRANCH  34  35
ATOM     35  CG  LYS A  14     -30.007  19.952  -3.424  0.00  0.00    -0.000 C 
BRANCH  35  36
ATOM     36  CD  LYS A  14     -30.093  20.818  -4.706  0.00  0.00    -0.024 C 
BRANCH  36  37
ATOM     37  CE  LYS A  14     -28.926  20.623  -5.691  0.00  0.00    -0.086 C 
BRANCH  37  38
ATOM     38  NZ  LYS A  14     -29.049  21.481  -6.942  0.00  0.00    +0.380 N 
ATOM     39  HZ1 LYS A  14     -29.069  22.485  -6.672  0.00  0.00    -0.089 HD
ATOM     40  HZ2 LYS A  14     -29.928  21.238  -7.442  0.00  0.00    -0.089 HD
ATOM     41  HZ3 LYS A  14     -28.234  21.304  -7.564  0.00  0.00    -0.089 HD
ENDBRANCH  37  38
ENDBRANCH  36  37
ENDBRANCH  35  36
ENDBRANCH  34  35
ENDBRANCH  31  34
ENDBRANCH  29  31
ENDBRANCH  26  27
BRANCH  26  42
ATOM     42  CB  THR A  13     -28.677  15.066  -1.095  0.00  0.00    +0.137 C 
ATOM     43  CG2 THR A  13     -28.270  13.649  -1.488  0.00  0.00    +0.034 C 
BRANCH  42  44
ATOM     44  OG1 THR A  13     -28.009  16.022  -1.906  0.00  0.00    -0.382 OA
ATOM     45  HG1 THR A  13     -27.031  15.891  -1.830  0.00  0.00    +0.210 HD
ENDBRANCH  42  44
ENDBRANCH  26  42
ENDBRANCH  24  26
ENDBRANCH  21  22
BRANCH  21  46
ATOM     46  CB  LEU A  12     -32.152  12.671  -4.395  0.00  0.00    +0.029 C 
BRANCH  46  47
ATOM     47  CG  LEU A  12     -32.931  11.663  -3.591  0.00  0.00    +0.002 C 
ATOM     48  CD2 LEU A  12     -32.151  11.247  -2.386  0.00  0.00    +0.000 C 
ATOM     49  CD1 LEU A  12     -33.223  10.461  -4.506  0.00  0.00    +0.000 C 
ENDBRANCH  46  47
ENDBRANCH  21  46
ENDBRANCH  19  21
ENDBRANCH  16  17
BRANCH  16  50
ATOM     50  CB  THR A  11     -32.078  17.116  -7.466  0.00  0.00    +0.137 C 
ATOM     51  CG2 THR A  11     -33.508  17.651  -7.212  0.00  0.00    +0.034 C 
BRANCH  50  52
ATOM     52  OG1 THR A  11     -31.462  18.000  -8.393  0.00  0.00    -0.382 OA
ATOM     53  HG1 THR A  11     -31.434  18.912  -8.009  0.00  0.00    +0.210 HD
ENDBRANCH  50  52
ENDBRANCH  16  50
ENDBRANCH  14  16
ENDBRANCH  11  12
BRANCH  11  54
ATOM     54  CB  SER A  10     -26.648  16.973  -6.006  0.00  0.00    +0.166 C 
BRANCH  54  55
ATOM     55  OG  SER A  10     -27.083  17.779  -7.092  0.00  0.00    -0.380 OA
ATOM     56  H   SER A  10     -27.244  17.206  -7.883  0.00  0.00    +0.211 HD
ENDBRANCH  54  55
ENDBRANCH  11  54
ENDBRANCH   9  11
ENDBRANCH   6   7
BRANCH   6  57
ATOM     57  CB  LYS A   9     -27.070  11.962  -7.517  0.00  0.00    +0.029 C 
BRANCH  57  58
ATOM     58  CG  LYS A   9     -27.015  10.886  -8.567  0.00  0.00    +0.000 C 
BRANCH  58  59
ATOM     59  CD  LYS A   9     -25.622  10.311  -8.712  0.00  0.00    -0.024 C 
BRANCH  59  60
ATOM     60  CE  LYS A   9     -24.528  11.251  -9.150  0.00  0.00    -0.086 C 
BRANCH  60  61
ATOM     61  NZ  LYS A   9     -24.725  11.677 -10.582  0.00  0.00    +0.380 N 
ATOM     62  HZ1 LYS A   9     -25.640  12.162 -10.675  0.00  0.00    -0.089 HD
ATOM     63  HZ2 LYS A   9     -23.959  12.323 -10.859  0.00  0.00    -0.089 HD
ATOM     64  HZ3 LYS A   9     -24.712  10.838 -11.197  0.00  0.00    -0.089 HD
ENDBRANCH  60  61
ENDBRANCH  59  60
ENDBRANCH  58  59
ENDBRANCH  57  58
ENDBRANCH   6  57
ENDBRANCH   4   6
ENDBRANCH   1   2
BRANCH   1  66
ATOM     65  C   SER A   7     -30.265  12.529 -12.024  0.00  0.00    +0.243 C 
ATOM     66  N   GLY A   8     -29.920  13.511 -11.183  0.00  0.00    -0.295 N 
ATOM     67  H   GLY A   8     -29.004  13.982 -11.323  0.00  0.00    +0.150 HD
ATOM     68  O   SER A   7     -31.316  11.897 -11.911  0.00  0.00    -0.273 OA
BRANCH  65  69
ATOM     69  CA  SER A   7     -29.324  12.223 -13.184  0.00  0.00    +0.178 C 
BRANCH  69  71
ATOM     70  C   GLY A   6     -28.506  14.341 -14.073  0.00  0.00    +0.243 C 
ATOM     71  N   SER A   7     -28.272  13.197 -13.427  0.00  0.00    -0.295 N 
ATOM     72  H   SER A   7     -27.310  12.996 -13.088  0.00  0.00    +0.150 HD
ATOM     73  O   GLY A   6     -29.620  14.673 -14.460  0.00  0.00    -0.273 OA
BRANCH  70  74
ATOM     74  CA  GLY A   6     -27.356  15.298 -14.242  0.00  0.00    +0.176 C 
BRANCH  74  76
ATOM     75  C   SER A   5     -25.436  13.966 -14.798  0.00  0.00    +0.243 C 
ATOM     76  N   GLY A   6     -26.043  14.778 -13.942  0.00  0.00    -0.295 N 
ATOM     77  H   GLY A   6     -25.572  15.041 -13.053  0.00  0.00    +0.150 HD
ATOM     78  O   SER A   5     -25.957  13.609 -15.866  0.00  0.00    -0.273 OA
BRANCH  75  79
ATOM     79  CA  SER A   5     -24.030  13.531 -14.436  0.00  0.00    +0.178 C 
BRANCH  79  82
ATOM     80  C   ARG A   4     -24.744  11.194 -14.266  0.00  0.00    +0.241 C 
ATOM     81  O   ARG A   4     -25.643  11.442 -13.466  0.00  0.00    -0.273 OA
ATOM     82  N   SER A   5     -23.877  12.103 -14.704  0.00  0.00    -0.295 N 
ATOM     83  H   SER A   5     -23.058  11.784 -15.259  0.00  0.00    +0.150 HD
BRANCH  80  84
ATOM     84  CA  ARG A   4     -24.539   9.796 -14.816  0.00  0.00    +0.149 C 
BRANCH  84  87
ATOM     85  C   GLY A   3     -24.811   8.664 -12.698  0.00  0.00    +0.243 C 
ATOM     86  O   GLY A   3     -23.926   9.338 -12.159  0.00  0.00    -0.273 OA
ATOM     87  N   ARG A   4     -25.141   8.781 -13.981  0.00  0.00    -0.297 N 
ATOM     88  H   ARG A   4     -25.843   8.132 -14.390  0.00  0.00    +0.150 HD
BRANCH  85  89
ATOM     89  CA  GLY A   3     -25.510   7.551 -11.969  0.00  0.00    +0.176 C 
BRANCH  89  92
ATOM     90  C   VAL A   2     -25.492   6.875  -9.618  0.00  0.00    +0.241 C 
ATOM     91  O   VAL A   2     -26.702   6.685  -9.563  0.00  0.00    -0.273 OA
ATOM     92  N   GLY A   3     -24.833   7.237 -10.714  0.00  0.00    -0.295 N 
ATOM     93  H   GLY A   3     -23.796   7.299 -10.676  0.00  0.00    +0.150 HD
BRANCH  90  94
ATOM     94  CA  VAL A   2     -24.616   6.639  -8.398  0.00  0.00    +0.148 C 
BRANCH  94  97
ATOM     95  C   ILE A   1     -25.189   7.217  -6.077  0.00  0.00    +0.238 C 
ATOM     96  O   ILE A   1     -24.243   7.989  -5.949  0.00  0.00    -0.274 OA
ATOM     97  N   VAL A   2     -25.449   6.540  -7.202  0.00  0.00    -0.297 N 
ATOM     98  H   VAL A   2     -26.281   5.916  -7.226  0.00  0.00    +0.150 HD
BRANCH  95  99
ATOM     99  CA  ILE A   1     -26.111   6.916  -4.923  0.00  0.00    +0.145 C 
BRANCH  99 100
ATOM    100  N   ILE A   1     -25.276   6.510  -3.781  0.00  0.00    -0.238 NA
ATOM    101  H   ILE A   1     -24.540   7.156  -3.431  0.00  0.00    +0.142 HD
ENDBRANCH  99 100
BRANCH  99 102
ATOM    102  CB  ILE A   1     -26.971   8.173  -4.642  0.00  0.00    +0.025 C 
ATOM    103  CG2 ILE A   1     -27.884   8.496  -5.852  0.00  0.00    +0.002 C 
BRANCH 102 104
ATOM    104  CG1 ILE A   1     -27.770   7.993  -3.361  0.00  0.00    +0.002 C 
ATOM    105  CD1 ILE A   1     -28.743   9.154  -3.102  0.00  0.00    +0.000 C 
ENDBRANCH 102 104
ENDBRANCH  99 102
ENDBRANCH  95  99
ENDBRANCH  94  97
BRANCH  94 106
ATOM    106  CB  VAL A   2     -23.774   5.385  -8.621  0.00  0.00    +0.027 C 
ATOM    107  CG2 VAL A   2     -22.893   5.106  -7.396  0.00  0.00    +0.002 C 
ATOM    108  CG1 VAL A   2     -24.640   4.183  -8.948  0.00  0.00    +0.002 C 
ENDBRANCH  94 106
ENDBRANCH  90  94
ENDBRANCH  89  92
ENDBRANCH  85  89
ENDBRANCH  84  87
BRANCH  84 109
ATOM    109  CB  ARG A   4     -25.060   9.721 -16.248  0.00  0.00    +0.033 C 
BRANCH 109 110
ATOM    110  CG  ARG A   4     -24.885   8.386 -16.949  0.00  0.00    +0.045 C 
BRANCH 110 111
ATOM    111  CD  ARG A   4     -25.538   8.463 -18.325  0.00  0.00    +0.174 C 
BRANCH 111 112
ATOM    112  NE  ARG A   4     -25.145   7.332 -19.169  0.00  0.00    -0.265 N 
ATOM    113  CZ  ARG A   4     -25.858   6.221 -19.359  0.00  0.00    +0.342 C 
ATOM    114  NH2 ARG A   4     -27.039   6.049 -18.789  0.00  0.00    -0.292 N 
ATOM    115 HH21 ARG A   4     -27.433   6.790 -18.175  0.00  0.00    +0.255 HD
ATOM    116 HH22 ARG A   4     -27.574   5.172 -18.955  0.00  0.00    +0.255 HD
ATOM    117  NH1 ARG A   4     -25.386   5.282 -20.184  0.00  0.00    -0.292 N 
ATOM    118 HH11 ARG A   4     -25.929   4.409 -20.344  0.00  0.00    +0.255 HD
ATOM    119 HH12 ARG A   4     -24.476   5.424 -20.666  0.00  0.00    +0.255 HD
ATOM    120  HE  ARG A   4     -24.232   7.401 -19.662  0.00  0.00    +0.259 HD
ENDBRANCH 111 112
ENDBRANCH 110 111
ENDBRANCH 109 110
ENDBRANCH  84 109
ENDBRANCH  80  84
ENDBRANCH  79  82
BRANCH  79 121
ATOM    121  CB  SER A   5     -23.015  14.353 -15.249  0.00  0.00    +0.166 C 
BRANCH 121 122
ATOM    122  OG  SER A   5     -21.688  13.923 -14.984  0.00  0.00    -0.380 OA
ATOM    123  H   SER A   5     -21.054  14.465 -15.517  0.00  0.00    +0.211 HD
ENDBRANCH 121 122
ENDBRANCH  79 121
ENDBRANCH  75  79
ENDBRANCH  74  76
ENDBRANCH  70  74
ENDBRANCH  69  71
BRANCH  69 124
ATOM    124  CB  SER A   7     -28.733  10.834 -13.032  0.00  0.00    +0.166 C 
BRANCH 124 125
ATOM    125  OG  SER A   7     -27.819  10.734 -11.975  0.00  0.00    -0.380 OA
ATOM    126  H   SER A   7     -27.070  11.363 -12.128  0.00  0.00    +0.211 HD
ENDBRANCH 124 125
ENDBRANCH  69 124
ENDBRANCH  65  69
ENDBRANCH   1  66
TORSDOF 57
REMARK  Name = ../refined-set-2016/2pmk/2pmk_pocket.pdb
REMARK  125 active torsions:
REMARK  status: ('A' for Active; 'I' for Inactive)
REMARK    1  A    between atoms: _1  and  _3
REMARK    2  A    between atoms: _3  and  _4
REMARK    3  A    between atoms: _3  and  _6
REMARK    4  A    between atoms: _6  and  _7
REMARK    5  A    between atoms: _13  and  _15
REMARK    6  A    between atoms: _15  and  _16
REMARK    7  A    between atoms: _15  and  _18
REMARK    8  A    between atoms: _18  and  _19
REMARK    9  A    between atoms: _19  and  _20
REMARK   10  A    between atoms: _20  and  _21
REMARK   11  A    between atoms: _30  and  _32
REMARK   12  A    between atoms: _32  and  _33
REMARK   13  A    between atoms: _32  and  _35
REMARK   14  A    between atoms: _35  and  _36
REMARK   15  A    between atoms: _41  and  _42
REMARK   16  A    between atoms: _44  and  _46
REMARK   17  A    between atoms: _46  and  _47
REMARK   18  A    between atoms: _46  and  _49
REMARK   19  A    between atoms: _49  and  _50
REMARK   20  A    between atoms: _50  and  _51
REMARK   21  A    between atoms: _51  and  _52
REMARK   22  A    between atoms: _52  and  _53
REMARK   23  A    between atoms: _57  and  _59
REMARK   24  A    between atoms: _59  and  _60
REMARK   25  A    between atoms: _59  and  _62
REMARK   26  A    between atoms: _62  and  _63
REMARK   27  A    between atoms: _66  and  _67
REMARK   28  A    between atoms: _72  and  _74
REMARK   29  A    between atoms: _74  and  _75
REMARK   30  A    between atoms: _74  and  _77
REMARK   31  A    between atoms: _80  and  _82
REMARK   32  A    between atoms: _82  and  _83
REMARK   33  A    between atoms: _82  and  _85
REMARK   34  A    between atoms: _85  and  _86
REMARK   35  A    between atoms: _89  and  _91
REMARK   36  A    between atoms: _91  and  _92
REMARK   37  A    between atoms: _91  and  _94
REMARK   38  A    between atoms: _94  and  _95
REMARK   39  A    between atoms: _98  and  _100
REMARK   40  A    between atoms: _100  and  _101
REMARK   41  A    between atoms: _100  and  _103
REMARK   42  A    between atoms: _103  and  _104
REMARK   43  A    between atoms: _107  and  _109
REMARK   44  A    between atoms: _109  and  _110
REMARK   45  A    between atoms: _109  and  _112
REMARK   46  A    between atoms: _115  and  _117
REMARK   47  A    between atoms: _117  and  _118
REMARK   48  A    between atoms: _120  and  _122
REMARK   49  A    between atoms: _122  and  _123
REMARK   50  A    between atoms: _122  and  _125
REMARK   51  A    between atoms: _125  and  _126
REMARK   52  A    between atoms: _126  and  _127
REMARK   53  A    between atoms: _127  and  _128
REMARK   54  A    between atoms: _137  and  _139
REMARK   55  A    between atoms: _139  and  _140
REMARK   56  A    between atoms: _139  and  _142
REMARK   57  A    between atoms: _142  and  _143
REMARK   58  A    between atoms: _145  and  _147
REMARK   59  A    between atoms: _147  and  _148
REMARK   60  A    between atoms: _150  and  _152
REMARK   61  A    between atoms: _152  and  _153
REMARK   62  A    between atoms: _152  and  _155
REMARK   63  A    between atoms: _155  and  _156
REMARK   64  A    between atoms: _158  and  _160
REMARK   65  A    between atoms: _160  and  _161
REMARK   66  A    between atoms: _163  and  _165
REMARK   67  A    between atoms: _165  and  _166
REMARK   68  A    between atoms: _165  and  _168
REMARK   69  A    between atoms: _168  and  _169
REMARK   70  A    between atoms: _169  and  _170
REMARK   71  A    between atoms: _170  and  _171
REMARK   72  A    between atoms: _171  and  _172
REMARK   73  A    between atoms: _176  and  _178
REMARK   74  A    between atoms: _178  and  _179
REMARK   75  A    between atoms: _178  and  _181
REMARK   76  A    between atoms: _181  and  _182
REMARK   77  A    between atoms: _184  and  _186
REMARK   78  A    between atoms: _186  and  _187
REMARK   79  A    between atoms: _186  and  _189
REMARK   80  A    between atoms: _189  and  _190
REMARK   81  A    between atoms: _193  and  _195
REMARK   82  A    between atoms: _195  and  _196
REMARK   83  A    between atoms: _195  and  _198
REMARK   84  A    between atoms: _198  and  _199
REMARK   85  A    between atoms: _202  and  _204
REMARK   86  A    between atoms: _204  and  _205
REMARK   87  A    between atoms: _204  and  _207
REMARK   88  A    between atoms: _207  and  _208
REMARK   89  A    between atoms: _211  and  _213
REMARK   90  A    between atoms: _213  and  _214
REMARK   91  A    between atoms: _213  and  _216
REMARK   92  A    between atoms: _216  and  _217
REMARK   93  A    between atoms: _217  and  _218
REMARK   94  A    between atoms: _218  and  _219
REMARK   95  A    between atoms: _219  and  _220
REMARK   96  A    between atoms: _224  and  _226
REMARK   97  A    between atoms: _226  and  _227
REMARK   98  A    between atoms: _226  and  _229
REMARK   99  A    between atoms: _229  and  _230
REMARK  100  A    between atoms: _235  and  _236
REMARK  101  A    between atoms: _238  and  _240
REMARK  102  A    between atoms: _240  and  _241
REMARK  103  A    between atoms: _240  and  _243
REMARK  104  A    between atoms: _243  and  _244
REMARK  105  A    between atoms: _244  and  _245
REMARK  106  A    between atoms: _248  and  _250
REMARK  107  A    between atoms: _250  and  _251
REMARK  108  A    between atoms: _250  and  _253
REMARK  109  A    between atoms: _253  and  _254
REMARK  110  A    between atoms: _257  and  _259
REMARK  111  A    between atoms: _259  and  _260
REMARK  112  A    between atoms: _263  and  _265
REMARK  113  A    between atoms: _265  and  _266
REMARK  114  A    between atoms: _265  and  _268
REMARK  115  A    between atoms: _268  and  _269
REMARK  116  A    between atoms: _269  and  _270
REMARK  117  A    between atoms: _272  and  _274
REMARK  118  A    between atoms: _274  and  _275
REMARK  119  A    between atoms: _274  and  _277
REMARK  120  A    between atoms: _277  and  _278
REMARK  121  A    between atoms: _278  and  _279
REMARK  122  A    between atoms: _279  and  _280
REMARK  123  A    between atoms: _280  and  _281
REMARK  124  A    between atoms: _285  and  _287
REMARK  125  A    between atoms: _287  and  _288
REMARK                            x       y       z     vdW  Elec       q    Type
REMARK                         _______ _______ _______ _____ _____    ______ ____
ROOT
ATOM      1  CG  TYR A   1     -34.924  23.400  -4.264  0.00  0.00    -0.020 A 
ATOM      2  CD2 TYR A   1     -33.619  22.989  -3.984  0.00  0.00    -0.001 A 
ATOM      3  CE2 TYR A   1     -32.523  23.736  -4.410  0.00  0.00    +0.036 A 
ATOM      4  CZ  TYR A   1     -32.728  24.879  -5.116  0.00  0.00    +0.134 A 
ATOM      5  CE1 TYR A   1     -34.003  25.300  -5.426  0.00  0.00    +0.036 A 
ATOM      6  CD1 TYR A   1     -35.109  24.554  -4.995  0.00  0.00    -0.001 A 
ENDROOT
BRANCH   4   7
ATOM      7  OH  TYR A   1     -31.638  25.645  -5.554  0.00  0.00    -0.506 OA
ATOM      8  HH  TYR A   1     -31.970  26.436  -6.048  0.00  0.00    +0.292 HD
ENDBRANCH   4   7
BRANCH   1   9
ATOM      9  CB  TYR A   1     -36.121  22.584  -3.779  0.00  0.00    +0.051 C 
BRANCH   9  10
ATOM     10  CA  TYR A   1     -36.583  22.970  -2.375  0.00  0.00    +0.137 C 
BRANCH  10  11
ATOM     11  N   TYR A   1     -35.546  22.835  -1.380  0.00  0.00    -0.239 NA
ATOM     12  H   TYR A   1     -35.366  21.886  -0.995  0.00  0.00    +0.142 HD
ENDBRANCH  10  11
BRANCH  10  13
ATOM     13  C   TYR A   1     -37.753  22.062  -1.955  0.00  0.00    +0.224 C 
ATOM     14  O   TYR A   1     -37.591  21.106  -1.155  0.00  0.00    -0.287 OA
ENDBRANCH  10  13
ENDBRANCH   9  10
ENDBRANCH   1   9
TORSDOF 5
REMARK  Name = ../refined-set-2016/2pmk/2pmk_pocket.pdb
REMARK  125 active torsions:
REMARK  status: ('A' for Active; 'I' for Inactive)
REMARK    1  A    between atoms: _1  and  _3
REMARK    2  A    between atoms: _3  and  _4
REMARK    3  A    between atoms: _3  and  _6
REMARK    4  A    between atoms: _6  and  _7
REMARK    5  A    between atoms: _13  and  _15
REMARK    6  A    between atoms: _15  and  _16
REMARK    7  A    between atoms: _15  and  _18
REMARK    8  A    between atoms: _18  and  _19
REMARK    9  A    between atoms: _19  and  _20
REMARK   10  A    between atoms: _20  and  _21
REMARK   11  A    between atoms: _30  and  _32
REMARK   12  A    between atoms: _32  and  _33
REMARK   13  A    between atoms: _32  and  _35
REMARK   14  A    between atoms: _35  and  _36
REMARK   15  A    between atoms: _41  and  _42
REMARK   16  A    between atoms: _44  and  _46
REMARK   17  A    between atoms: _46  and  _47
REMARK   18  A    between atoms: _46  and  _49
REMARK   19  A    between atoms: _49  and  _50
REMARK   20  A    between atoms: _50  and  _51
REMARK   21  A    between atoms: _51  and  _52
REMARK   22  A    between atoms: _52  and  _53
REMARK   23  A    between atoms: _57  and  _59
REMARK   24  A    between atoms: _59  and  _60
REMARK   25  A    between atoms: _59  and  _62
REMARK   26  A    between atoms: _62  and  _63
REMARK   27  A    between atoms: _66  and  _67
REMARK   28  A    between atoms: _72  and  _74
REMARK   29  A    between atoms: _74  and  _75
REMARK   30  A    between atoms: _74  and  _77
REMARK   31  A    between atoms: _80  and  _82
REMARK   32  A    between atoms: _82  and  _83
REMARK   33  A    between atoms: _82  and  _85
REMARK   34  A    between atoms: _85  and  _86
REMARK   35  A    between atoms: _89  and  _91
REMARK   36  A    between atoms: _91  and  _92
REMARK   37  A    between atoms: _91  and  _94
REMARK   38  A    between atoms: _94  and  _95
REMARK   39  A    between atoms: _98  and  _100
REMARK   40  A    between atoms: _100  and  _101
REMARK   41  A    between atoms: _100  and  _103
REMARK   42  A    between atoms: _103  and  _104
REMARK   43  A    between atoms: _107  and  _109
REMARK   44  A    between atoms: _109  and  _110
REMARK   45  A    between atoms: _109  and  _112
REMARK   46  A    between atoms: _115  and  _117
REMARK   47  A    between atoms: _117  and  _118
REMARK   48  A    between atoms: _120  and  _122
REMARK   49  A    between atoms: _122  and  _123
REMARK   50  A    between atoms: _122  and  _125
REMARK   51  A    between atoms: _125  and  _126
REMARK   52  A    between atoms: _126  and  _127
REMARK   53  A    between atoms: _127  and  _128
REMARK   54  A    between atoms: _137  and  _139
REMARK   55  A    between atoms: _139  and  _140
REMARK   56  A    between atoms: _139  and  _142
REMARK   57  A    between atoms: _142  and  _143
REMARK   58  A    between atoms: _145  and  _147
REMARK   59  A    between atoms: _147  and  _148
REMARK   60  A    between atoms: _150  and  _152
REMARK   61  A    between atoms: _152  and  _153
REMARK   62  A    between atoms: _152  and  _155
REMARK   63  A    between atoms: _155  and  _156
REMARK   64  A    between atoms: _158  and  _160
REMARK   65  A    between atoms: _160  and  _161
REMARK   66  A    between atoms: _163  and  _165
REMARK   67  A    between atoms: _165  and  _166
REMARK   68  A    between atoms: _165  and  _168
REMARK   69  A    between atoms: _168  and  _169
REMARK   70  A    between atoms: _169  and  _170
REMARK   71  A    between atoms: _170  and  _171
REMARK   72  A    between atoms: _171  and  _172
REMARK   73  A    between atoms: _176  and  _178
REMARK   74  A    between atoms: _178  and  _179
REMARK   75  A    between atoms: _178  and  _181
REMARK   76  A    between atoms: _181  and  _182
REMARK   77  A    between atoms: _184  and  _186
REMARK   78  A    between atoms: _186  and  _187
REMARK   79  A    between atoms: _186  and  _189
REMARK   80  A    between atoms: _189  and  _190
REMARK   81  A    between atoms: _193  and  _195
REMARK   82  A    between atoms: _195  and  _196
REMARK   83  A    between atoms: _195  and  _198
REMARK   84  A    between atoms: _198  and  _199
REMARK   85  A    between atoms: _202  and  _204
REMARK   86  A    between atoms: _204  and  _205
REMARK   87  A    between atoms: _204  and  _207
REMARK   88  A    between atoms: _207  and  _208
REMARK   89  A    between atoms: _211  and  _213
REMARK   90  A    between atoms: _213  and  _214
REMARK   91  A    between atoms: _213  and  _216
REMARK   92  A    between atoms: _216  and  _217
REMARK   93  A    between atoms: _217  and  _218
REMARK   94  A    between atoms: _218  and  _219
REMARK   95  A    between atoms: _219  and  _220
REMARK   96  A    between atoms: _224  and  _226
REMARK   97  A    between atoms: _226  and  _227
REMARK   98  A    between atoms: _226  and  _229
REMARK   99  A    between atoms: _229  and  _230
REMARK  100  A    between atoms: _235  and  _236
REMARK  101  A    between atoms: _238  and  _240
REMARK  102  A    between atoms: _240  and  _241
REMARK  103  A    between atoms: _240  and  _243
REMARK  104  A    between atoms: _243  and  _244
REMARK  105  A    between atoms: _244  and  _245
REMARK  106  A    between atoms: _248  and  _250
REMARK  107  A    between atoms: _250  and  _251
REMARK  108  A    between atoms: _250  and  _253
REMARK  109  A    between atoms: _253  and  _254
REMARK  110  A    between atoms: _257  and  _259
REMARK  111  A    between atoms: _259  and  _260
REMARK  112  A    between atoms: _263  and  _265
REMARK  113  A    between atoms: _265  and  _266
REMARK  114  A    between atoms: _265  and  _268
REMARK  115  A    between atoms: _268  and  _269
REMARK  116  A    between atoms: _269  and  _270
REMARK  117  A    between atoms: _272  and  _274
REMARK  118  A    between atoms: _274  and  _275
REMARK  119  A    between atoms: _274  and  _277
REMARK  120  A    between atoms: _277  and  _278
REMARK  121  A    between atoms: _278  and  _279
REMARK  122  A    between atoms: _279  and  _280
REMARK  123  A    between atoms: _280  and  _281
REMARK  124  A    between atoms: _285  and  _287
REMARK  125  A    between atoms: _287  and  _288
REMARK                            x       y       z     vdW  Elec       q    Type
REMARK                         _______ _______ _______ _____ _____    ______ ____
ROOT
ATOM      1  CA  GLU A   1     -20.133  14.342  -4.712  0.00  0.00    +0.134 C 
ENDROOT
BRANCH   1   2
ATOM      2  N   GLU A   1     -21.018  14.962  -3.720  0.00  0.00    -0.239 NA
ATOM      3  H   GLU A   1     -21.923  15.374  -4.023  0.00  0.00    +0.142 HD
ENDBRANCH   1   2
BRANCH   1   4
ATOM      4  C   GLU A   1     -18.741  15.028  -4.792  0.00  0.00    +0.224 C 
ATOM      5  O   GLU A   1     -18.658  16.255  -4.837  0.00  0.00    -0.287 OA
ENDBRANCH   1   4
BRANCH   1   6
ATOM      6  CB  GLU A   1     -20.796  14.361  -6.089  0.00  0.00    +0.037 C 
BRANCH   6   7
ATOM      7  CG  GLU A   1     -20.059  13.524  -7.118  0.00  0.00    +0.116 C 
BRANCH   7   8
ATOM      8  CD  GLU A   1     -20.785  13.416  -8.472  0.00  0.00    +0.365 C 
ATOM      9  OE2 GLU A   1     -21.962  13.807  -8.608  0.00  0.00    -0.246 OA
ATOM     10  OE1 GLU A   1     -20.142  12.913  -9.415  0.00  0.00    -0.246 OA
ENDBRANCH   7   8
ENDBRANCH   6   7
ENDBRANCH   1   6
TORSDOF 5
REMARK  Name = ../refined-set-2016/2pmk/2pmk_pocket.pdb
REMARK  125 active torsions:
REMARK  status: ('A' for Active; 'I' for Inactive)
REMARK    1  A    between atoms: _1  and  _3
REMARK    2  A    between atoms: _3  and  _4
REMARK    3  A    between atoms: _3  and  _6
REMARK    4  A    between atoms: _6  and  _7
REMARK    5  A    between atoms: _13  and  _15
REMARK    6  A    between atoms: _15  and  _16
REMARK    7  A    between atoms: _15  and  _18
REMARK    8  A    between atoms: _18  and  _19
REMARK    9  A    between atoms: _19  and  _20
REMARK   10  A    between atoms: _20  and  _21
REMARK   11  A    between atoms: _30  and  _32
REMARK   12  A    between atoms: _32  and  _33
REMARK   13  A    between atoms: _32  and  _35
REMARK   14  A    between atoms: _35  and  _36
REMARK   15  A    between atoms: _41  and  _42
REMARK   16  A    between atoms: _44  and  _46
REMARK   17  A    between atoms: _46  and  _47
REMARK   18  A    between atoms: _46  and  _49
REMARK   19  A    between atoms: _49  and  _50
REMARK   20  A    between atoms: _50  and  _51
REMARK   21  A    between atoms: _51  and  _52
REMARK   22  A    between atoms: _52  and  _53
REMARK   23  A    between atoms: _57  and  _59
REMARK   24  A    between atoms: _59  and  _60
REMARK   25  A    between atoms: _59  and  _62
REMARK   26  A    between atoms: _62  and  _63
REMARK   27  A    between atoms: _66  and  _67
REMARK   28  A    between atoms: _72  and  _74
REMARK   29  A    between atoms: _74  and  _75
REMARK   30  A    between atoms: _74  and  _77
REMARK   31  A    between atoms: _80  and  _82
REMARK   32  A    between atoms: _82  and  _83
REMARK   33  A    between atoms: _82  and  _85
REMARK   34  A    between atoms: _85  and  _86
REMARK   35  A    between atoms: _89  and  _91
REMARK   36  A    between atoms: _91  and  _92
REMARK   37  A    between atoms: _91  and  _94
REMARK   38  A    between atoms: _94  and  _95
REMARK   39  A    between atoms: _98  and  _100
REMARK   40  A    between atoms: _100  and  _101
REMARK   41  A    between atoms: _100  and  _103
REMARK   42  A    between atoms: _103  and  _104
REMARK   43  A    between atoms: _107  and  _109
REMARK   44  A    between atoms: _109  and  _110
REMARK   45  A    between atoms: _109  and  _112
REMARK   46  A    between atoms: _115  and  _117
REMARK   47  A    between atoms: _117  and  _118
REMARK   48  A    between atoms: _120  and  _122
REMARK   49  A    between atoms: _122  and  _123
REMARK   50  A    between atoms: _122  and  _125
REMARK   51  A    between atoms: _125  and  _126
REMARK   52  A    between atoms: _126  and  _127
REMARK   53  A    between atoms: _127  and  _128
REMARK   54  A    between atoms: _137  and  _139
REMARK   55  A    between atoms: _139  and  _140
REMARK   56  A    between atoms: _139  and  _142
REMARK   57  A    between atoms: _142  and  _143
REMARK   58  A    between atoms: _145  and  _147
REMARK   59  A    between atoms: _147  and  _148
REMARK   60  A    between atoms: _150  and  _152
REMARK   61  A    between atoms: _152  and  _153
REMARK   62  A    between atoms: _152  and  _155
REMARK   63  A    between atoms: _155  and  _156
REMARK   64  A    between atoms: _158  and  _160
REMARK   65  A    between atoms: _160  and  _161
REMARK   66  A    between atoms: _163  and  _165
REMARK   67  A    between atoms: _165  and  _166
REMARK   68  A    between atoms: _165  and  _168
REMARK   69  A    between atoms: _168  and  _169
REMARK   70  A    between atoms: _169  and  _170
REMARK   71  A    between atoms: _170  and  _171
REMARK   72  A    between atoms: _171  and  _172
REMARK   73  A    between atoms: _176  and  _178
REMARK   74  A    between atoms: _178  and  _179
REMARK   75  A    between atoms: _178  and  _181
REMARK   76  A    between atoms: _181  and  _182
REMARK   77  A    between atoms: _184  and  _186
REMARK   78  A    between atoms: _186  and  _187
REMARK   79  A    between atoms: _186  and  _189
REMARK   80  A    between atoms: _189  and  _190
REMARK   81  A    between atoms: _193  and  _195
REMARK   82  A    between atoms: _195  and  _196
REMARK   83  A    between atoms: _195  and  _198
REMARK   84  A    between atoms: _198  and  _199
REMARK   85  A    between atoms: _202  and  _204
REMARK   86  A    between atoms: _204  and  _205
REMARK   87  A    between atoms: _204  and  _207
REMARK   88  A    between atoms: _207  and  _208
REMARK   89  A    between atoms: _211  and  _213
REMARK   90  A    between atoms: _213  and  _214
REMARK   91  A    between atoms: _213  and  _216
REMARK   92  A    between atoms: _216  and  _217
REMARK   93  A    between atoms: _217  and  _218
REMARK   94  A    between atoms: _218  and  _219
REMARK   95  A    between atoms: _219  and  _220
REMARK   96  A    between atoms: _224  and  _226
REMARK   97  A    between atoms: _226  and  _227
REMARK   98  A    between atoms: _226  and  _229
REMARK   99  A    between atoms: _229  and  _230
REMARK  100  A    between atoms: _235  and  _236
REMARK  101  A    between atoms: _238  and  _240
REMARK  102  A    between atoms: _240  and  _241
REMARK  103  A    between atoms: _240  and  _243
REMARK  104  A    between atoms: _243  and  _244
REMARK  105  A    between atoms: _244  and  _245
REMARK  106  A    between atoms: _248  and  _250
REMARK  107  A    between atoms: _250  and  _251
REMARK  108  A    between atoms: _250  and  _253
REMARK  109  A    between atoms: _253  and  _254
REMARK  110  A    between atoms: _257  and  _259
REMARK  111  A    between atoms: _259  and  _260
REMARK  112  A    between atoms: _263  and  _265
REMARK  113  A    between atoms: _265  and  _266
REMARK  114  A    between atoms: _265  and  _268
REMARK  115  A    between atoms: _268  and  _269
REMARK  116  A    between atoms: _269  and  _270
REMARK  117  A    between atoms: _272  and  _274
REMARK  118  A    between atoms: _274  and  _275
REMARK  119  A    between atoms: _274  and  _277
REMARK  120  A    between atoms: _277  and  _278
REMARK  121  A    between atoms: _278  and  _279
REMARK  122  A    between atoms: _279  and  _280
REMARK  123  A    between atoms: _280  and  _281
REMARK  124  A    between atoms: _285  and  _287
REMARK  125  A    between atoms: _287  and  _288
REMARK                            x       y       z     vdW  Elec       q    Type
REMARK                         _______ _______ _______ _____ _____    ______ ____
ROOT
ATOM      1  C   ILE A   1     -21.742  10.234  -4.306  0.00  0.00    +0.238 C 
ATOM      2  O   ILE A   1     -20.793  10.969  -4.020  0.00  0.00    -0.274 OA
ATOM      3  N   ALA A   2     -21.632   9.202  -5.137  0.00  0.00    -0.298 N 
ATOM      4  H   ALA A   2     -22.494   8.774  -5.531  0.00  0.00    +0.150 HD
ENDROOT
BRANCH   3   5
ATOM      5  CA  ALA A   2     -20.328   8.652  -5.512  0.00  0.00    +0.137 C 
ATOM      6  CB  ALA A   2     -20.287   7.172  -5.337  0.00  0.00    +0.030 C 
BRANCH   5   7
ATOM      7  C   ALA A   2     -20.055   8.983  -6.938  0.00  0.00    +0.227 C 
ATOM      8  O   ALA A   2     -20.816   8.570  -7.815  0.00  0.00    -0.286 OA
ENDBRANCH   5   7
ENDBRANCH   3   5
BRANCH   1   9
ATOM      9  CA  ILE A   1     -23.106  10.501  -3.710  0.00  0.00    +0.145 C 
BRANCH   9  10
ATOM     10  N   ILE A   1     -22.943  10.359  -2.270  0.00  0.00    -0.238 NA
ATOM     11  H   ILE A   1     -22.697  11.187  -1.691  0.00  0.00    +0.142 HD
ENDBRANCH   9  10
BRANCH   9  12
ATOM     12  CB  ILE A   1     -23.545  11.931  -4.098  0.00  0.00    +0.025 C 
ATOM     13  CG2 ILE A   1     -23.682  12.032  -5.638  0.00  0.00    +0.002 C 
BRANCH  12  14
ATOM     14  CG1 ILE A   1     -24.809  12.346  -3.355  0.00  0.00    +0.002 C 
ATOM     15  CD1 ILE A   1     -25.264  13.769  -3.662  0.00  0.00    +0.000 C 
ENDBRANCH  12  14
ENDBRANCH   9  12
ENDBRANCH   1   9
TORSDOF 6
REMARK  Name = ../refined-set-2016/2pmk/2pmk_pocket.pdb
REMARK  125 active torsions:
REMARK  status: ('A' for Active; 'I' for Inactive)
REMARK    1  A    between atoms: _1  and  _3
REMARK    2  A    between atoms: _3  and  _4
REMARK    3  A    between atoms: _3  and  _6
REMARK    4  A    between atoms: _6  and  _7
REMARK    5  A    between atoms: _13  and  _15
REMARK    6  A    between atoms: _15  and  _16
REMARK    7  A    between atoms: _15  and  _18
REMARK    8  A    between atoms: _18  and  _19
REMARK    9  A    between atoms: _19  and  _20
REMARK   10  A    between atoms: _20  and  _21
REMARK   11  A    between atoms: _30  and  _32
REMARK   12  A    between atoms: _32  and  _33
REMARK   13  A    between atoms: _32  and  _35
REMARK   14  A    between atoms: _35  and  _36
REMARK   15  A    between atoms: _41  and  _42
REMARK   16  A    between atoms: _44  and  _46
REMARK   17  A    between atoms: _46  and  _47
REMARK   18  A    between atoms: _46  and  _49
REMARK   19  A    between atoms: _49  and  _50
REMARK   20  A    between atoms: _50  and  _51
REMARK   21  A    between atoms: _51  and  _52
REMARK   22  A    between atoms: _52  and  _53
REMARK   23  A    between atoms: _57  and  _59
REMARK   24  A    between atoms: _59  and  _60
REMARK   25  A    between atoms: _59  and  _62
REMARK   26  A    between atoms: _62  and  _63
REMARK   27  A    between atoms: _66  and  _67
REMARK   28  A    between atoms: _72  and  _74
REMARK   29  A    between atoms: _74  and  _75
REMARK   30  A    between atoms: _74  and  _77
REMARK   31  A    between atoms: _80  and  _82
REMARK   32  A    between atoms: _82  and  _83
REMARK   33  A    between atoms: _82  and  _85
REMARK   34  A    between atoms: _85  and  _86
REMARK   35  A    between atoms: _89  and  _91
REMARK   36  A    between atoms: _91  and  _92
REMARK   37  A    between atoms: _91  and  _94
REMARK   38  A    between atoms: _94  and  _95
REMARK   39  A    between atoms: _98  and  _100
REMARK   40  A    between atoms: _100  and  _101
REMARK   41  A    between atoms: _100  and  _103
REMARK   42  A    between atoms: _103  and  _104
REMARK   43  A    between atoms: _107  and  _109
REMARK   44  A    between atoms: _109  and  _110
REMARK   45  A    between atoms: _109  and  _112
REMARK   46  A    between atoms: _115  and  _117
REMARK   47  A    between atoms: _117  and  _118
REMARK   48  A    between atoms: _120  and  _122
REMARK   49  A    between atoms: _122  and  _123
REMARK   50  A    between atoms: _122  and  _125
REMARK   51  A    between atoms: _125  and  _126
REMARK   52  A    between atoms: _126  and  _127
REMARK   53  A    between atoms: _127  and  _128
REMARK   54  A    between atoms: _137  and  _139
REMARK   55  A    between atoms: _139  and  _140
REMARK   56  A    between atoms: _139  and  _142
REMARK   57  A    between atoms: _142  and  _143
REMARK   58  A    between atoms: _145  and  _147
REMARK   59  A    between atoms: _147  and  _148
REMARK   60  A    between atoms: _150  and  _152
REMARK   61  A    between atoms: _152  and  _153
REMARK   62  A    between atoms: _152  and  _155
REMARK   63  A    between atoms: _155  and  _156
REMARK   64  A    between atoms: _158  and  _160
REMARK   65  A    between atoms: _160  and  _161
REMARK   66  A    between atoms: _163  and  _165
REMARK   67  A    between atoms: _165  and  _166
REMARK   68  A    between atoms: _165  and  _168
REMARK   69  A    between atoms: _168  and  _169
REMARK   70  A    between atoms: _169  and  _170
REMARK   71  A    between atoms: _170  and  _171
REMARK   72  A    between atoms: _171  and  _172
REMARK   73  A    between atoms: _176  and  _178
REMARK   74  A    between atoms: _178  and  _179
REMARK   75  A    between atoms: _178  and  _181
REMARK   76  A    between atoms: _181  and  _182
REMARK   77  A    between atoms: _184  and  _186
REMARK   78  A    between atoms: _186  and  _187
REMARK   79  A    between atoms: _186  and  _189
REMARK   80  A    between atoms: _189  and  _190
REMARK   81  A    between atoms: _193  and  _195
REMARK   82  A    between atoms: _195  and  _196
REMARK   83  A    between atoms: _195  and  _198
REMARK   84  A    between atoms: _198  and  _199
REMARK   85  A    between atoms: _202  and  _204
REMARK   86  A    between atoms: _204  and  _205
REMARK   87  A    between atoms: _204  and  _207
REMARK   88  A    between atoms: _207  and  _208
REMARK   89  A    between atoms: _211  and  _213
REMARK   90  A    between atoms: _213  and  _214
REMARK   91  A    between atoms: _213  and  _216
REMARK   92  A    between atoms: _216  and  _217
REMARK   93  A    between atoms: _217  and  _218
REMARK   94  A    between atoms: _218  and  _219
REMARK   95  A    between atoms: _219  and  _220
REMARK   96  A    between atoms: _224  and  _226
REMARK   97  A    between atoms: _226  and  _227
REMARK   98  A    between atoms: _226  and  _229
REMARK   99  A    between atoms: _229  and  _230
REMARK  100  A    between atoms: _235  and  _236
REMARK  101  A    between atoms: _238  and  _240
REMARK  102  A    between atoms: _240  and  _241
REMARK  103  A    between atoms: _240  and  _243
REMARK  104  A    between atoms: _243  and  _244
REMARK  105  A    between atoms: _244  and  _245
REMARK  106  A    between atoms: _248  and  _250
REMARK  107  A    between atoms: _250  and  _251
REMARK  108  A    between atoms: _250  and  _253
REMARK  109  A    between atoms: _253  and  _254
REMARK  110  A    between atoms: _257  and  _259
REMARK  111  A    between atoms: _259  and  _260
REMARK  112  A    between atoms: _263  and  _265
REMARK  113  A    between atoms: _265  and  _266
REMARK  114  A    between atoms: _265  and  _268
REMARK  115  A    between atoms: _268  and  _269
REMARK  116  A    between atoms: _269  and  _270
REMARK  117  A    between atoms: _272  and  _274
REMARK  118  A    between atoms: _274  and  _275
REMARK  119  A    between atoms: _274  and  _277
REMARK  120  A    between atoms: _277  and  _278
REMARK  121  A    between atoms: _278  and  _279
REMARK  122  A    between atoms: _279  and  _280
REMARK  123  A    between atoms: _280  and  _281
REMARK  124  A    between atoms: _285  and  _287
REMARK  125  A    between atoms: _287  and  _288
REMARK                            x       y       z     vdW  Elec       q    Type
REMARK                         _______ _______ _______ _____ _____    ______ ____
ROOT
ATOM      1  CA  MET A   1     -30.413   7.052 -10.881  0.00  0.00    +0.134 C 
ENDROOT
BRANCH   1   2
ATOM      2  N   MET A   1     -29.478   6.125 -10.254  0.00  0.00    -0.239 NA
ATOM      3  H   MET A   1     -28.526   6.452  -9.991  0.00  0.00    +0.142 HD
ENDBRANCH   1   2
BRANCH   1   4
ATOM      4  C   MET A   1     -30.103   7.225 -12.330  0.00  0.00    +0.224 C 
ATOM      5  O   MET A   1     -28.959   7.174 -12.724  0.00  0.00    -0.287 OA
ENDBRANCH   1   4
BRANCH   1   6
ATOM      6  CB  MET A   1     -30.450   8.407 -10.150  0.00  0.00    +0.037 C 
BRANCH   6   7
ATOM      7  CG  MET A   1     -30.891   8.267  -8.673  0.00  0.00    +0.059 C 
BRANCH   7   8
ATOM      8  SD  MET A   1     -30.952   9.814  -7.803  0.00  0.00    -0.139 S 
ATOM      9  CE  MET A   1     -32.334  10.582  -8.745  0.00  0.00    +0.069 C 
ENDBRANCH   7   8
ENDBRANCH   6   7
ENDBRANCH   1   6
TORSDOF 5
REMARK  Name = ../refined-set-2016/2pmk/2pmk_pocket.pdb
REMARK  125 active torsions:
REMARK  status: ('A' for Active; 'I' for Inactive)
REMARK    1  A    between atoms: _1  and  _3
REMARK    2  A    between atoms: _3  and  _4
REMARK    3  A    between atoms: _3  and  _6
REMARK    4  A    between atoms: _6  and  _7
REMARK    5  A    between atoms: _13  and  _15
REMARK    6  A    between atoms: _15  and  _16
REMARK    7  A    between atoms: _15  and  _18
REMARK    8  A    between atoms: _18  and  _19
REMARK    9  A    between atoms: _19  and  _20
REMARK   10  A    between atoms: _20  and  _21
REMARK   11  A    between atoms: _30  and  _32
REMARK   12  A    between atoms: _32  and  _33
REMARK   13  A    between atoms: _32  and  _35
REMARK   14  A    between atoms: _35  and  _36
REMARK   15  A    between atoms: _41  and  _42
REMARK   16  A    between atoms: _44  and  _46
REMARK   17  A    between atoms: _46  and  _47
REMARK   18  A    between atoms: _46  and  _49
REMARK   19  A    between atoms: _49  and  _50
REMARK   20  A    between atoms: _50  and  _51
REMARK   21  A    between atoms: _51  and  _52
REMARK   22  A    between atoms: _52  and  _53
REMARK   23  A    between atoms: _57  and  _59
REMARK   24  A    between atoms: _59  and  _60
REMARK   25  A    between atoms: _59  and  _62
REMARK   26  A    between atoms: _62  and  _63
REMARK   27  A    between atoms: _66  and  _67
REMARK   28  A    between atoms: _72  and  _74
REMARK   29  A    between atoms: _74  and  _75
REMARK   30  A    between atoms: _74  and  _77
REMARK   31  A    between atoms: _80  and  _82
REMARK   32  A    between atoms: _82  and  _83
REMARK   33  A    between atoms: _82  and  _85
REMARK   34  A    between atoms: _85  and  _86
REMARK   35  A    between atoms: _89  and  _91
REMARK   36  A    between atoms: _91  and  _92
REMARK   37  A    between atoms: _91  and  _94
REMARK   38  A    between atoms: _94  and  _95
REMARK   39  A    between atoms: _98  and  _100
REMARK   40  A    between atoms: _100  and  _101
REMARK   41  A    between atoms: _100  and  _103
REMARK   42  A    between atoms: _103  and  _104
REMARK   43  A    between atoms: _107  and  _109
REMARK   44  A    between atoms: _109  and  _110
REMARK   45  A    between atoms: _109  and  _112
REMARK   46  A    between atoms: _115  and  _117
REMARK   47  A    between atoms: _117  and  _118
REMARK   48  A    between atoms: _120  and  _122
REMARK   49  A    between atoms: _122  and  _123
REMARK   50  A    between atoms: _122  and  _125
REMARK   51  A    between atoms: _125  and  _126
REMARK   52  A    between atoms: _126  and  _127
REMARK   53  A    between atoms: _127  and  _128
REMARK   54  A    between atoms: _137  and  _139
REMARK   55  A    between atoms: _139  and  _140
REMARK   56  A    between atoms: _139  and  _142
REMARK   57  A    between atoms: _142  and  _143
REMARK   58  A    between atoms: _145  and  _147
REMARK   59  A    between atoms: _147  and  _148
REMARK   60  A    between atoms: _150  and  _152
REMARK   61  A    between atoms: _152  and  _153
REMARK   62  A    between atoms: _152  and  _155
REMARK   63  A    between atoms: _155  and  _156
REMARK   64  A    between atoms: _158  and  _160
REMARK   65  A    between atoms: _160  and  _161
REMARK   66  A    between atoms: _163  and  _165
REMARK   67  A    between atoms: _165  and  _166
REMARK   68  A    between atoms: _165  and  _168
REMARK   69  A    between atoms: _168  and  _169
REMARK   70  A    between atoms: _169  and  _170
REMARK   71  A    between atoms: _170  and  _171
REMARK   72  A    between atoms: _171  and  _172
REMARK   73  A    between atoms: _176  and  _178
REMARK   74  A    between atoms: _178  and  _179
REMARK   75  A    between atoms: _178  and  _181
REMARK   76  A    between atoms: _181  and  _182
REMARK   77  A    between atoms: _184  and  _186
REMARK   78  A    between atoms: _186  and  _187
REMARK   79  A    between atoms: _186  and  _189
REMARK   80  A    between atoms: _189  and  _190
REMARK   81  A    between atoms: _193  and  _195
REMARK   82  A    between atoms: _195  and  _196
REMARK   83  A    between atoms: _195  and  _198
REMARK   84  A    between atoms: _198  and  _199
REMARK   85  A    between atoms: _202  and  _204
REMARK   86  A    between atoms: _204  and  _205
REMARK   87  A    between atoms: _204  and  _207
REMARK   88  A    between atoms: _207  and  _208
REMARK   89  A    between atoms: _211  and  _213
REMARK   90  A    between atoms: _213  and  _214
REMARK   91  A    between atoms: _213  and  _216
REMARK   92  A    between atoms: _216  and  _217
REMARK   93  A    between atoms: _217  and  _218
REMARK   94  A    between atoms: _218  and  _219
REMARK   95  A    between atoms: _219  and  _220
REMARK   96  A    between atoms: _224  and  _226
REMARK   97  A    between atoms: _226  and  _227
REMARK   98  A    between atoms: _226  and  _229
REMARK   99  A    between atoms: _229  and  _230
REMARK  100  A    between atoms: _235  and  _236
REMARK  101  A    between atoms: _238  and  _240
REMARK  102  A    between atoms: _240  and  _241
REMARK  103  A    between atoms: _240  and  _243
REMARK  104  A    between atoms: _243  and  _244
REMARK  105  A    between atoms: _244  and  _245
REMARK  106  A    between atoms: _248  and  _250
REMARK  107  A    between atoms: _250  and  _251
REMARK  108  A    between atoms: _250  and  _253
REMARK  109  A    between atoms: _253  and  _254
REMARK  110  A    between atoms: _257  and  _259
REMARK  111  A    between atoms: _259  and  _260
REMARK  112  A    between atoms: _263  and  _265
REMARK  113  A    between atoms: _265  and  _266
REMARK  114  A    between atoms: _265  and  _268
REMARK  115  A    between atoms: _268  and  _269
REMARK  116  A    between atoms: _269  and  _270
REMARK  117  A    between atoms: _272  and  _274
REMARK  118  A    between atoms: _274  and  _275
REMARK  119  A    between atoms: _274  and  _277
REMARK  120  A    between atoms: _277  and  _278
REMARK  121  A    between atoms: _278  and  _279
REMARK  122  A    between atoms: _279  and  _280
REMARK  123  A    between atoms: _280  and  _281
REMARK  124  A    between atoms: _285  and  _287
REMARK  125  A    between atoms: _287  and  _288
REMARK                            x       y       z     vdW  Elec       q    Type
REMARK                         _______ _______ _______ _____ _____    ______ ____
ROOT
ATOM      1  CA  LYS A   1     -32.868  10.730 -15.913  0.00  0.00    +0.145 C 
ENDROOT
BRANCH   1   2
ATOM      2  C   LYS A   1     -33.981  10.980 -14.877  0.00  0.00    +0.238 C 
ATOM      3  N   GLY A   2     -33.586  11.139 -13.625  0.00  0.00    -0.297 N 
ATOM      4  H   GLY A   2     -32.589  10.978 -13.377  0.00  0.00    +0.150 HD
ATOM      5  O   LYS A   1     -35.160  11.065 -15.208  0.00  0.00    -0.274 OA
BRANCH   3   6
ATOM      6  CA  GLY A   2     -34.516  11.531 -12.603  0.00  0.00    +0.163 C 
BRANCH   6   7
ATOM      7  C   GLY A   2     -35.313  10.404 -11.999  0.00  0.00    +0.229 C 
ATOM      8  O   GLY A   2     -36.182  10.650 -11.152  0.00  0.00    -0.286 OA
ENDBRANCH   6   7
ENDBRANCH   3   6
ENDBRANCH   1   2
BRANCH   1   9
ATOM      9  N   LYS A   1     -31.842   9.798 -15.440  0.00  0.00    -0.238 NA
ATOM     10  H   LYS A   1     -30.843  10.081 -15.503  0.00  0.00    +0.142 HD
ENDBRANCH   1   9
BRANCH   1  11
ATOM     11  CB  LYS A   1     -33.432  10.267 -17.269  0.00  0.00    +0.026 C 
BRANCH  11  12
ATOM     12  CG  LYS A   1     -32.423  10.275 -18.377  0.00  0.00    -0.000 C 
BRANCH  12  13
ATOM     13  CD  LYS A   1     -33.027   9.751 -19.681  0.00  0.00    -0.024 C 
BRANCH  13  14
ATOM     14  CE  LYS A   1     -31.990   9.620 -20.762  0.00  0.00    -0.086 C 
BRANCH  14  15
ATOM     15  NZ  LYS A   1     -32.575   9.039 -21.991  0.00  0.00    +0.380 N 
ATOM     16  HZ1 LYS A   1     -32.957   8.095 -21.779  0.00  0.00    -0.089 HD
ATOM     17  HZ2 LYS A   1     -33.339   9.655 -22.334  0.00  0.00    -0.089 HD
ATOM     18  HZ3 LYS A   1     -31.838   8.960 -22.720  0.00  0.00    -0.089 HD
ENDBRANCH  14  15
ENDBRANCH  13  14
ENDBRANCH  12  13
ENDBRANCH  11  12
ENDBRANCH   1  11
TORSDOF 9
REMARK  Name = ../refined-set-2016/2pmk/2pmk_pocket.pdb
REMARK  125 active torsions:
REMARK  status: ('A' for Active; 'I' for Inactive)
REMARK    1  A    between atoms: _1  and  _3
REMARK    2  A    between atoms: _3  and  _4
REMARK    3  A    between atoms: _3  and  _6
REMARK    4  A    between atoms: _6  and  _7
REMARK    5  A    between atoms: _13  and  _15
REMARK    6  A    between atoms: _15  and  _16
REMARK    7  A    between atoms: _15  and  _18
REMARK    8  A    between atoms: _18  and  _19
REMARK    9  A    between atoms: _19  and  _20
REMARK   10  A    between atoms: _20  and  _21
REMARK   11  A    between atoms: _30  and  _32
REMARK   12  A    between atoms: _32  and  _33
REMARK   13  A    between atoms: _32  and  _35
REMARK   14  A    between atoms: _35  and  _36
REMARK   15  A    between atoms: _41  and  _42
REMARK   16  A    between atoms: _44  and  _46
REMARK   17  A    between atoms: _46  and  _47
REMARK   18  A    between atoms: _46  and  _49
REMARK   19  A    between atoms: _49  and  _50
REMARK   20  A    between atoms: _50  and  _51
REMARK   21  A    between atoms: _51  and  _52
REMARK   22  A    between atoms: _52  and  _53
REMARK   23  A    between atoms: _57  and  _59
REMARK   24  A    between atoms: _59  and  _60
REMARK   25  A    between atoms: _59  and  _62
REMARK   26  A    between atoms: _62  and  _63
REMARK   27  A    between atoms: _66  and  _67
REMARK   28  A    between atoms: _72  and  _74
REMARK   29  A    between atoms: _74  and  _75
REMARK   30  A    between atoms: _74  and  _77
REMARK   31  A    between atoms: _80  and  _82
REMARK   32  A    between atoms: _82  and  _83
REMARK   33  A    between atoms: _82  and  _85
REMARK   34  A    between atoms: _85  and  _86
REMARK   35  A    between atoms: _89  and  _91
REMARK   36  A    between atoms: _91  and  _92
REMARK   37  A    between atoms: _91  and  _94
REMARK   38  A    between atoms: _94  and  _95
REMARK   39  A    between atoms: _98  and  _100
REMARK   40  A    between atoms: _100  and  _101
REMARK   41  A    between atoms: _100  and  _103
REMARK   42  A    between atoms: _103  and  _104
REMARK   43  A    between atoms: _107  and  _109
REMARK   44  A    between atoms: _109  and  _110
REMARK   45  A    between atoms: _109  and  _112
REMARK   46  A    between atoms: _115  and  _117
REMARK   47  A    between atoms: _117  and  _118
REMARK   48  A    between atoms: _120  and  _122
REMARK   49  A    between atoms: _122  and  _123
REMARK   50  A    between atoms: _122  and  _125
REMARK   51  A    between atoms: _125  and  _126
REMARK   52  A    between atoms: _126  and  _127
REMARK   53  A    between atoms: _127  and  _128
REMARK   54  A    between atoms: _137  and  _139
REMARK   55  A    between atoms: _139  and  _140
REMARK   56  A    between atoms: _139  and  _142
REMARK   57  A    between atoms: _142  and  _143
REMARK   58  A    between atoms: _145  and  _147
REMARK   59  A    between atoms: _147  and  _148
REMARK   60  A    between atoms: _150  and  _152
REMARK   61  A    between atoms: _152  and  _153
REMARK   62  A    between atoms: _152  and  _155
REMARK   63  A    between atoms: _155  and  _156
REMARK   64  A    between atoms: _158  and  _160
REMARK   65  A    between atoms: _160  and  _161
REMARK   66  A    between atoms: _163  and  _165
REMARK   67  A    between atoms: _165  and  _166
REMARK   68  A    between atoms: _165  and  _168
REMARK   69  A    between atoms: _168  and  _169
REMARK   70  A    between atoms: _169  and  _170
REMARK   71  A    between atoms: _170  and  _171
REMARK   72  A    between atoms: _171  and  _172
REMARK   73  A    between atoms: _176  and  _178
REMARK   74  A    between atoms: _178  and  _179
REMARK   75  A    between atoms: _178  and  _181
REMARK   76  A    between atoms: _181  and  _182
REMARK   77  A    between atoms: _184  and  _186
REMARK   78  A    between atoms: _186  and  _187
REMARK   79  A    between atoms: _186  and  _189
REMARK   80  A    between atoms: _189  and  _190
REMARK   81  A    between atoms: _193  and  _195
REMARK   82  A    between atoms: _195  and  _196
REMARK   83  A    between atoms: _195  and  _198
REMARK   84  A    between atoms: _198  and  _199
REMARK   85  A    between atoms: _202  and  _204
REMARK   86  A    between atoms: _204  and  _205
REMARK   87  A    between atoms: _204  and  _207
REMARK   88  A    between atoms: _207  and  _208
REMARK   89  A    between atoms: _211  and  _213
REMARK   90  A    between atoms: _213  and  _214
REMARK   91  A    between atoms: _213  and  _216
REMARK   92  A    between atoms: _216  and  _217
REMARK   93  A    between atoms: _217  and  _218
REMARK   94  A    between atoms: _218  and  _219
REMARK   95  A    between atoms: _219  and  _220
REMARK   96  A    between atoms: _224  and  _226
REMARK   97  A    between atoms: _226  and  _227
REMARK   98  A    between atoms: _226  and  _229
REMARK   99  A    between atoms: _229  and  _230
REMARK  100  A    between atoms: _235  and  _236
REMARK  101  A    between atoms: _238  and  _240
REMARK  102  A    between atoms: _240  and  _241
REMARK  103  A    between atoms: _240  and  _243
REMARK  104  A    between atoms: _243  and  _244
REMARK  105  A    between atoms: _244  and  _245
REMARK  106  A    between atoms: _248  and  _250
REMARK  107  A    between atoms: _250  and  _251
REMARK  108  A    between atoms: _250  and  _253
REMARK  109  A    between atoms: _253  and  _254
REMARK  110  A    between atoms: _257  and  _259
REMARK  111  A    between atoms: _259  and  _260
REMARK  112  A    between atoms: _263  and  _265
REMARK  113  A    between atoms: _265  and  _266
REMARK  114  A    between atoms: _265  and  _268
REMARK  115  A    between atoms: _268  and  _269
REMARK  116  A    between atoms: _269  and  _270
REMARK  117  A    between atoms: _272  and  _274
REMARK  118  A    between atoms: _274  and  _275
REMARK  119  A    between atoms: _274  and  _277
REMARK  120  A    between atoms: _277  and  _278
REMARK  121  A    between atoms: _278  and  _279
REMARK  122  A    between atoms: _279  and  _280
REMARK  123  A    between atoms: _280  and  _281
REMARK  124  A    between atoms: _285  and  _287
REMARK  125  A    between atoms: _287  and  _288
REMARK                            x       y       z     vdW  Elec       q    Type
REMARK                         _______ _______ _______ _____ _____    ______ ____
ROOT
ATOM      1  O   HOH     1     -27.240   7.097 -14.936  0.00  0.00    +0.000 OA
ENDROOT
TORSDOF 0
REMARK  Name = ../refined-set-2016/2pmk/2pmk_pocket.pdb
REMARK  125 active torsions:
REMARK  status: ('A' for Active; 'I' for Inactive)
REMARK    1  A    between atoms: _1  and  _3
REMARK    2  A    between atoms: _3  and  _4
REMARK    3  A    between atoms: _3  and  _6
REMARK    4  A    between atoms: _6  and  _7
REMARK    5  A    between atoms: _13  and  _15
REMARK    6  A    between atoms: _15  and  _16
REMARK    7  A    between atoms: _15  and  _18
REMARK    8  A    between atoms: _18  and  _19
REMARK    9  A    between atoms: _19  and  _20
REMARK   10  A    between atoms: _20  and  _21
REMARK   11  A    between atoms: _30  and  _32
REMARK   12  A    between atoms: _32  and  _33
REMARK   13  A    between atoms: _32  and  _35
REMARK   14  A    between atoms: _35  and  _36
REMARK   15  A    between atoms: _41  and  _42
REMARK   16  A    between atoms: _44  and  _46
REMARK   17  A    between atoms: _46  and  _47
REMARK   18  A    between atoms: _46  and  _49
REMARK   19  A    between atoms: _49  and  _50
REMARK   20  A    between atoms: _50  and  _51
REMARK   21  A    between atoms: _51  and  _52
REMARK   22  A    between atoms: _52  and  _53
REMARK   23  A    between atoms: _57  and  _59
REMARK   24  A    between atoms: _59  and  _60
REMARK   25  A    between atoms: _59  and  _62
REMARK   26  A    between atoms: _62  and  _63
REMARK   27  A    between atoms: _66  and  _67
REMARK   28  A    between atoms: _72  and  _74
REMARK   29  A    between atoms: _74  and  _75
REMARK   30  A    between atoms: _74  and  _77
REMARK   31  A    between atoms: _80  and  _82
REMARK   32  A    between atoms: _82  and  _83
REMARK   33  A    between atoms: _82  and  _85
REMARK   34  A    between atoms: _85  and  _86
REMARK   35  A    between atoms: _89  and  _91
REMARK   36  A    between atoms: _91  and  _92
REMARK   37  A    between atoms: _91  and  _94
REMARK   38  A    between atoms: _94  and  _95
REMARK   39  A    between atoms: _98  and  _100
REMARK   40  A    between atoms: _100  and  _101
REMARK   41  A    between atoms: _100  and  _103
REMARK   42  A    between atoms: _103  and  _104
REMARK   43  A    between atoms: _107  and  _109
REMARK   44  A    between atoms: _109  and  _110
REMARK   45  A    between atoms: _109  and  _112
REMARK   46  A    between atoms: _115  and  _117
REMARK   47  A    between atoms: _117  and  _118
REMARK   48  A    between atoms: _120  and  _122
REMARK   49  A    between atoms: _122  and  _123
REMARK   50  A    between atoms: _122  and  _125
REMARK   51  A    between atoms: _125  and  _126
REMARK   52  A    between atoms: _126  and  _127
REMARK   53  A    between atoms: _127  and  _128
REMARK   54  A    between atoms: _137  and  _139
REMARK   55  A    between atoms: _139  and  _140
REMARK   56  A    between atoms: _139  and  _142
REMARK   57  A    between atoms: _142  and  _143
REMARK   58  A    between atoms: _145  and  _147
REMARK   59  A    between atoms: _147  and  _148
REMARK   60  A    between atoms: _150  and  _152
REMARK   61  A    between atoms: _152  and  _153
REMARK   62  A    between atoms: _152  and  _155
REMARK   63  A    between atoms: _155  and  _156
REMARK   64  A    between atoms: _158  and  _160
REMARK   65  A    between atoms: _160  and  _161
REMARK   66  A    between atoms: _163  and  _165
REMARK   67  A    between atoms: _165  and  _166
REMARK   68  A    between atoms: _165  and  _168
REMARK   69  A    between atoms: _168  and  _169
REMARK   70  A    between atoms: _169  and  _170
REMARK   71  A    between atoms: _170  and  _171
REMARK   72  A    between atoms: _171  and  _172
REMARK   73  A    between atoms: _176  and  _178
REMARK   74  A    between atoms: _178  and  _179
REMARK   75  A    between atoms: _178  and  _181
REMARK   76  A    between atoms: _181  and  _182
REMARK   77  A    between atoms: _184  and  _186
REMARK   78  A    between atoms: _186  and  _187
REMARK   79  A    between atoms: _186  and  _189
REMARK   80  A    between atoms: _189  and  _190
REMARK   81  A    between atoms: _193  and  _195
REMARK   82  A    between atoms: _195  and  _196
REMARK   83  A    between atoms: _195  and  _198
REMARK   84  A    between atoms: _198  and  _199
REMARK   85  A    between atoms: _202  and  _204
REMARK   86  A    between atoms: _204  and  _205
REMARK   87  A    between atoms: _204  and  _207
REMARK   88  A    between atoms: _207  and  _208
REMARK   89  A    between atoms: _211  and  _213
REMARK   90  A    between atoms: _213  and  _214
REMARK   91  A    between atoms: _213  and  _216
REMARK   92  A    between atoms: _216  and  _217
REMARK   93  A    between atoms: _217  and  _218
REMARK   94  A    between atoms: _218  and  _219
REMARK   95  A    between atoms: _219  and  _220
REMARK   96  A    between atoms: _224  and  _226
REMARK   97  A    between atoms: _226  and  _227
REMARK   98  A    between atoms: _226  and  _229
REMARK   99  A    between atoms: _229  and  _230
REMARK  100  A    between atoms: _235  and  _236
REMARK  101  A    between atoms: _238  and  _240
REMARK  102  A    between atoms: _240  and  _241
REMARK  103  A    between atoms: _240  and  _243
REMARK  104  A    between atoms: _243  and  _244
REMARK  105  A    between atoms: _244  and  _245
REMARK  106  A    between atoms: _248  and  _250
REMARK  107  A    between atoms: _250  and  _251
REMARK  108  A    between atoms: _250  and  _253
REMARK  109  A    between atoms: _253  and  _254
REMARK  110  A    between atoms: _257  and  _259
REMARK  111  A    between atoms: _259  and  _260
REMARK  112  A    between atoms: _263  and  _265
REMARK  113  A    between atoms: _265  and  _266
REMARK  114  A    between atoms: _265  and  _268
REMARK  115  A    between atoms: _268  and  _269
REMARK  116  A    between atoms: _269  and  _270
REMARK  117  A    between atoms: _272  and  _274
REMARK  118  A    between atoms: _274  and  _275
REMARK  119  A    between atoms: _274  and  _277
REMARK  120  A    between atoms: _277  and  _278
REMARK  121  A    between atoms: _278  and  _279
REMARK  122  A    between atoms: _279  and  _280
REMARK  123  A    between atoms: _280  and  _281
REMARK  124  A    between atoms: _285  and  _287
REMARK  125  A    between atoms: _287  and  _288
REMARK                            x       y       z     vdW  Elec       q    Type
REMARK                         _______ _______ _______ _____ _____    ______ ____
ROOT
ATOM      1  O   HOH     1     -23.880  15.271  -7.439  0.00  0.00    +0.000 OA
ENDROOT
TORSDOF 0
REMARK  Name = ../refined-set-2016/2pmk/2pmk_pocket.pdb
REMARK  125 active torsions:
REMARK  status: ('A' for Active; 'I' for Inactive)
REMARK    1  A    between atoms: _1  and  _3
REMARK    2  A    between atoms: _3  and  _4
REMARK    3  A    between atoms: _3  and  _6
REMARK    4  A    between atoms: _6  and  _7
REMARK    5  A    between atoms: _13  and  _15
REMARK    6  A    between atoms: _15  and  _16
REMARK    7  A    between atoms: _15  and  _18
REMARK    8  A    between atoms: _18  and  _19
REMARK    9  A    between atoms: _19  and  _20
REMARK   10  A    between atoms: _20  and  _21
REMARK   11  A    between atoms: _30  and  _32
REMARK   12  A    between atoms: _32  and  _33
REMARK   13  A    between atoms: _32  and  _35
REMARK   14  A    between atoms: _35  and  _36
REMARK   15  A    between atoms: _41  and  _42
REMARK   16  A    between atoms: _44  and  _46
REMARK   17  A    between atoms: _46  and  _47
REMARK   18  A    between atoms: _46  and  _49
REMARK   19  A    between atoms: _49  and  _50
REMARK   20  A    between atoms: _50  and  _51
REMARK   21  A    between atoms: _51  and  _52
REMARK   22  A    between atoms: _52  and  _53
REMARK   23  A    between atoms: _57  and  _59
REMARK   24  A    between atoms: _59  and  _60
REMARK   25  A    between atoms: _59  and  _62
REMARK   26  A    between atoms: _62  and  _63
REMARK   27  A    between atoms: _66  and  _67
REMARK   28  A    between atoms: _72  and  _74
REMARK   29  A    between atoms: _74  and  _75
REMARK   30  A    between atoms: _74  and  _77
REMARK   31  A    between atoms: _80  and  _82
REMARK   32  A    between atoms: _82  and  _83
REMARK   33  A    between atoms: _82  and  _85
REMARK   34  A    between atoms: _85  and  _86
REMARK   35  A    between atoms: _89  and  _91
REMARK   36  A    between atoms: _91  and  _92
REMARK   37  A    between atoms: _91  and  _94
REMARK   38  A    between atoms: _94  and  _95
REMARK   39  A    between atoms: _98  and  _100
REMARK   40  A    between atoms: _100  and  _101
REMARK   41  A    between atoms: _100  and  _103
REMARK   42  A    between atoms: _103  and  _104
REMARK   43  A    between atoms: _107  and  _109
REMARK   44  A    between atoms: _109  and  _110
REMARK   45  A    between atoms: _109  and  _112
REMARK   46  A    between atoms: _115  and  _117
REMARK   47  A    between atoms: _117  and  _118
REMARK   48  A    between atoms: _120  and  _122
REMARK   49  A    between atoms: _122  and  _123
REMARK   50  A    between atoms: _122  and  _125
REMARK   51  A    between atoms: _125  and  _126
REMARK   52  A    between atoms: _126  and  _127
REMARK   53  A    between atoms: _127  and  _128
REMARK   54  A    between atoms: _137  and  _139
REMARK   55  A    between atoms: _139  and  _140
REMARK   56  A    between atoms: _139  and  _142
REMARK   57  A    between atoms: _142  and  _143
REMARK   58  A    between atoms: _145  and  _147
REMARK   59  A    between atoms: _147  and  _148
REMARK   60  A    between atoms: _150  and  _152
REMARK   61  A    between atoms: _152  and  _153
REMARK   62  A    between atoms: _152  and  _155
REMARK   63  A    between atoms: _155  and  _156
REMARK   64  A    between atoms: _158  and  _160
REMARK   65  A    between atoms: _160  and  _161
REMARK   66  A    between atoms: _163  and  _165
REMARK   67  A    between atoms: _165  and  _166
REMARK   68  A    between atoms: _165  and  _168
REMARK   69  A    between atoms: _168  and  _169
REMARK   70  A    between atoms: _169  and  _170
REMARK   71  A    between atoms: _170  and  _171
REMARK   72  A    between atoms: _171  and  _172
REMARK   73  A    between atoms: _176  and  _178
REMARK   74  A    between atoms: _178  and  _179
REMARK   75  A    between atoms: _178  and  _181
REMARK   76  A    between atoms: _181  and  _182
REMARK   77  A    between atoms: _184  and  _186
REMARK   78  A    between atoms: _186  and  _187
REMARK   79  A    between atoms: _186  and  _189
REMARK   80  A    between atoms: _189  and  _190
REMARK   81  A    between atoms: _193  and  _195
REMARK   82  A    between atoms: _195  and  _196
REMARK   83  A    between atoms: _195  and  _198
REMARK   84  A    between atoms: _198  and  _199
REMARK   85  A    between atoms: _202  and  _204
REMARK   86  A    between atoms: _204  and  _205
REMARK   87  A    between atoms: _204  and  _207
REMARK   88  A    between atoms: _207  and  _208
REMARK   89  A    between atoms: _211  and  _213
REMARK   90  A    between atoms: _213  and  _214
REMARK   91  A    between atoms: _213  and  _216
REMARK   92  A    between atoms: _216  and  _217
REMARK   93  A    between atoms: _217  and  _218
REMARK   94  A    between atoms: _218  and  _219
REMARK   95  A    between atoms: _219  and  _220
REMARK   96  A    between atoms: _224  and  _226
REMARK   97  A    between atoms: _226  and  _227
REMARK   98  A    between atoms: _226  and  _229
REMARK   99  A    between atoms: _229  and  _230
REMARK  100  A    between atoms: _235  and  _236
REMARK  101  A    between atoms: _238  and  _240
REMARK  102  A    between atoms: _240  and  _241
REMARK  103  A    between atoms: _240  and  _243
REMARK  104  A    between atoms: _243  and  _244
REMARK  105  A    between atoms: _244  and  _245
REMARK  106  A    between atoms: _248  and  _250
REMARK  107  A    between atoms: _250  and  _251
REMARK  108  A    between atoms: _250  and  _253
REMARK  109  A    between atoms: _253  and  _254
REMARK  110  A    between atoms: _257  and  _259
REMARK  111  A    between atoms: _259  and  _260
REMARK  112  A    between atoms: _263  and  _265
REMARK  113  A    between atoms: _265  and  _266
REMARK  114  A    between atoms: _265  and  _268
REMARK  115  A    between atoms: _268  and  _269
REMARK  116  A    between atoms: _269  and  _270
REMARK  117  A    between atoms: _272  and  _274
REMARK  118  A    between atoms: _274  and  _275
REMARK  119  A    between atoms: _274  and  _277
REMARK  120  A    between atoms: _277  and  _278
REMARK  121  A    between atoms: _278  and  _279
REMARK  122  A    between atoms: _279  and  _280
REMARK  123  A    between atoms: _280  and  _281
REMARK  124  A    between atoms: _285  and  _287
REMARK  125  A    between atoms: _287  and  _288
REMARK                            x       y       z     vdW  Elec       q    Type
REMARK                         _______ _______ _______ _____ _____    ______ ____
ROOT
ATOM      1  O   HOH     1     -23.400  16.172  -4.832  0.00  0.00    +0.000 OA
ENDROOT
TORSDOF 0
REMARK  Name = ../refined-set-2016/2pmk/2pmk_pocket.pdb
REMARK  125 active torsions:
REMARK  status: ('A' for Active; 'I' for Inactive)
REMARK    1  A    between atoms: _1  and  _3
REMARK    2  A    between atoms: _3  and  _4
REMARK    3  A    between atoms: _3  and  _6
REMARK    4  A    between atoms: _6  and  _7
REMARK    5  A    between atoms: _13  and  _15
REMARK    6  A    between atoms: _15  and  _16
REMARK    7  A    between atoms: _15  and  _18
REMARK    8  A    between atoms: _18  and  _19
REMARK    9  A    between atoms: _19  and  _20
REMARK   10  A    between atoms: _20  and  _21
REMARK   11  A    between atoms: _30  and  _32
REMARK   12  A    between atoms: _32  and  _33
REMARK   13  A    between atoms: _32  and  _35
REMARK   14  A    between atoms: _35  and  _36
REMARK   15  A    between atoms: _41  and  _42
REMARK   16  A    between atoms: _44  and  _46
REMARK   17  A    between atoms: _46  and  _47
REMARK   18  A    between atoms: _46  and  _49
REMARK   19  A    between atoms: _49  and  _50
REMARK   20  A    between atoms: _50  and  _51
REMARK   21  A    between atoms: _51  and  _52
REMARK   22  A    between atoms: _52  and  _53
REMARK   23  A    between atoms: _57  and  _59
REMARK   24  A    between atoms: _59  and  _60
REMARK   25  A    between atoms: _59  and  _62
REMARK   26  A    between atoms: _62  and  _63
REMARK   27  A    between atoms: _66  and  _67
REMARK   28  A    between atoms: _72  and  _74
REMARK   29  A    between atoms: _74  and  _75
REMARK   30  A    between atoms: _74  and  _77
REMARK   31  A    between atoms: _80  and  _82
REMARK   32  A    between atoms: _82  and  _83
REMARK   33  A    between atoms: _82  and  _85
REMARK   34  A    between atoms: _85  and  _86
REMARK   35  A    between atoms: _89  and  _91
REMARK   36  A    between atoms: _91  and  _92
REMARK   37  A    between atoms: _91  and  _94
REMARK   38  A    between atoms: _94  and  _95
REMARK   39  A    between atoms: _98  and  _100
REMARK   40  A    between atoms: _100  and  _101
REMARK   41  A    between atoms: _100  and  _103
REMARK   42  A    between atoms: _103  and  _104
REMARK   43  A    between atoms: _107  and  _109
REMARK   44  A    between atoms: _109  and  _110
REMARK   45  A    between atoms: _109  and  _112
REMARK   46  A    between atoms: _115  and  _117
REMARK   47  A    between atoms: _117  and  _118
REMARK   48  A    between atoms: _120  and  _122
REMARK   49  A    between atoms: _122  and  _123
REMARK   50  A    between atoms: _122  and  _125
REMARK   51  A    between atoms: _125  and  _126
REMARK   52  A    between atoms: _126  and  _127
REMARK   53  A    between atoms: _127  and  _128
REMARK   54  A    between atoms: _137  and  _139
REMARK   55  A    between atoms: _139  and  _140
REMARK   56  A    between atoms: _139  and  _142
REMARK   57  A    between atoms: _142  and  _143
REMARK   58  A    between atoms: _145  and  _147
REMARK   59  A    between atoms: _147  and  _148
REMARK   60  A    between atoms: _150  and  _152
REMARK   61  A    between atoms: _152  and  _153
REMARK   62  A    between atoms: _152  and  _155
REMARK   63  A    between atoms: _155  and  _156
REMARK   64  A    between atoms: _158  and  _160
REMARK   65  A    between atoms: _160  and  _161
REMARK   66  A    between atoms: _163  and  _165
REMARK   67  A    between atoms: _165  and  _166
REMARK   68  A    between atoms: _165  and  _168
REMARK   69  A    between atoms: _168  and  _169
REMARK   70  A    between atoms: _169  and  _170
REMARK   71  A    between atoms: _170  and  _171
REMARK   72  A    between atoms: _171  and  _172
REMARK   73  A    between atoms: _176  and  _178
REMARK   74  A    between atoms: _178  and  _179
REMARK   75  A    between atoms: _178  and  _181
REMARK   76  A    between atoms: _181  and  _182
REMARK   77  A    between atoms: _184  and  _186
REMARK   78  A    between atoms: _186  and  _187
REMARK   79  A    between atoms: _186  and  _189
REMARK   80  A    between atoms: _189  and  _190
REMARK   81  A    between atoms: _193  and  _195
REMARK   82  A    between atoms: _195  and  _196
REMARK   83  A    between atoms: _195  and  _198
REMARK   84  A    between atoms: _198  and  _199
REMARK   85  A    between atoms: _202  and  _204
REMARK   86  A    between atoms: _204  and  _205
REMARK   87  A    between atoms: _204  and  _207
REMARK   88  A    between atoms: _207  and  _208
REMARK   89  A    between atoms: _211  and  _213
REMARK   90  A    between atoms: _213  and  _214
REMARK   91  A    between atoms: _213  and  _216
REMARK   92  A    between atoms: _216  and  _217
REMARK   93  A    between atoms: _217  and  _218
REMARK   94  A    between atoms: _218  and  _219
REMARK   95  A    between atoms: _219  and  _220
REMARK   96  A    between atoms: _224  and  _226
REMARK   97  A    between atoms: _226  and  _227
REMARK   98  A    between atoms: _226  and  _229
REMARK   99  A    between atoms: _229  and  _230
REMARK  100  A    between atoms: _235  and  _236
REMARK  101  A    between atoms: _238  and  _240
REMARK  102  A    between atoms: _240  and  _241
REMARK  103  A    between atoms: _240  and  _243
REMARK  104  A    between atoms: _243  and  _244
REMARK  105  A    between atoms: _244  and  _245
REMARK  106  A    between atoms: _248  and  _250
REMARK  107  A    between atoms: _250  and  _251
REMARK  108  A    between atoms: _250  and  _253
REMARK  109  A    between atoms: _253  and  _254
REMARK  110  A    between atoms: _257  and  _259
REMARK  111  A    between atoms: _259  and  _260
REMARK  112  A    between atoms: _263  and  _265
REMARK  113  A    between atoms: _265  and  _266
REMARK  114  A    between atoms: _265  and  _268
REMARK  115  A    between atoms: _268  and  _269
REMARK  116  A    between atoms: _269  and  _270
REMARK  117  A    between atoms: _272  and  _274
REMARK  118  A    between atoms: _274  and  _275
REMARK  119  A    between atoms: _274  and  _277
REMARK  120  A    between atoms: _277  and  _278
REMARK  121  A    between atoms: _278  and  _279
REMARK  122  A    between atoms: _279  and  _280
REMARK  123  A    between atoms: _280  and  _281
REMARK  124  A    between atoms: _285  and  _287
REMARK  125  A    between atoms: _287  and  _288
REMARK                            x       y       z     vdW  Elec       q    Type
REMARK                         _______ _______ _______ _____ _____    ______ ____
ROOT
ATOM      1  O   HOH     1     -29.213  10.423 -16.344  0.00  0.00    +0.000 OA
ENDROOT
TORSDOF 0
REMARK  Name = ../refined-set-2016/2pmk/2pmk_pocket.pdb
REMARK  125 active torsions:
REMARK  status: ('A' for Active; 'I' for Inactive)
REMARK    1  A    between atoms: _1  and  _3
REMARK    2  A    between atoms: _3  and  _4
REMARK    3  A    between atoms: _3  and  _6
REMARK    4  A    between atoms: _6  and  _7
REMARK    5  A    between atoms: _13  and  _15
REMARK    6  A    between atoms: _15  and  _16
REMARK    7  A    between atoms: _15  and  _18
REMARK    8  A    between atoms: _18  and  _19
REMARK    9  A    between atoms: _19  and  _20
REMARK   10  A    between atoms: _20  and  _21
REMARK   11  A    between atoms: _30  and  _32
REMARK   12  A    between atoms: _32  and  _33
REMARK   13  A    between atoms: _32  and  _35
REMARK   14  A    between atoms: _35  and  _36
REMARK   15  A    between atoms: _41  and  _42
REMARK   16  A    between atoms: _44  and  _46
REMARK   17  A    between atoms: _46  and  _47
REMARK   18  A    between atoms: _46  and  _49
REMARK   19  A    between atoms: _49  and  _50
REMARK   20  A    between atoms: _50  and  _51
REMARK   21  A    between atoms: _51  and  _52
REMARK   22  A    between atoms: _52  and  _53
REMARK   23  A    between atoms: _57  and  _59
REMARK   24  A    between atoms: _59  and  _60
REMARK   25  A    between atoms: _59  and  _62
REMARK   26  A    between atoms: _62  and  _63
REMARK   27  A    between atoms: _66  and  _67
REMARK   28  A    between atoms: _72  and  _74
REMARK   29  A    between atoms: _74  and  _75
REMARK   30  A    between atoms: _74  and  _77
REMARK   31  A    between atoms: _80  and  _82
REMARK   32  A    between atoms: _82  and  _83
REMARK   33  A    between atoms: _82  and  _85
REMARK   34  A    between atoms: _85  and  _86
REMARK   35  A    between atoms: _89  and  _91
REMARK   36  A    between atoms: _91  and  _92
REMARK   37  A    between atoms: _91  and  _94
REMARK   38  A    between atoms: _94  and  _95
REMARK   39  A    between atoms: _98  and  _100
REMARK   40  A    between atoms: _100  and  _101
REMARK   41  A    between atoms: _100  and  _103
REMARK   42  A    between atoms: _103  and  _104
REMARK   43  A    between atoms: _107  and  _109
REMARK   44  A    between atoms: _109  and  _110
REMARK   45  A    between atoms: _109  and  _112
REMARK   46  A    between atoms: _115  and  _117
REMARK   47  A    between atoms: _117  and  _118
REMARK   48  A    between atoms: _120  and  _122
REMARK   49  A    between atoms: _122  and  _123
REMARK   50  A    between atoms: _122  and  _125
REMARK   51  A    between atoms: _125  and  _126
REMARK   52  A    between atoms: _126  and  _127
REMARK   53  A    between atoms: _127  and  _128
REMARK   54  A    between atoms: _137  and  _139
REMARK   55  A    between atoms: _139  and  _140
REMARK   56  A    between atoms: _139  and  _142
REMARK   57  A    between atoms: _142  and  _143
REMARK   58  A    between atoms: _145  and  _147
REMARK   59  A    between atoms: _147  and  _148
REMARK   60  A    between atoms: _150  and  _152
REMARK   61  A    between atoms: _152  and  _153
REMARK   62  A    between atoms: _152  and  _155
REMARK   63  A    between atoms: _155  and  _156
REMARK   64  A    between atoms: _158  and  _160
REMARK   65  A    between atoms: _160  and  _161
REMARK   66  A    between atoms: _163  and  _165
REMARK   67  A    between atoms: _165  and  _166
REMARK   68  A    between atoms: _165  and  _168
REMARK   69  A    between atoms: _168  and  _169
REMARK   70  A    between atoms: _169  and  _170
REMARK   71  A    between atoms: _170  and  _171
REMARK   72  A    between atoms: _171  and  _172
REMARK   73  A    between atoms: _176  and  _178
REMARK   74  A    between atoms: _178  and  _179
REMARK   75  A    between atoms: _178  and  _181
REMARK   76  A    between atoms: _181  and  _182
REMARK   77  A    between atoms: _184  and  _186
REMARK   78  A    between atoms: _186  and  _187
REMARK   79  A    between atoms: _186  and  _189
REMARK   80  A    between atoms: _189  and  _190
REMARK   81  A    between atoms: _193  and  _195
REMARK   82  A    between atoms: _195  and  _196
REMARK   83  A    between atoms: _195  and  _198
REMARK   84  A    between atoms: _198  and  _199
REMARK   85  A    between atoms: _202  and  _204
REMARK   86  A    between atoms: _204  and  _205
REMARK   87  A    between atoms: _204  and  _207
REMARK   88  A    between atoms: _207  and  _208
REMARK   89  A    between atoms: _211  and  _213
REMARK   90  A    between atoms: _213  and  _214
REMARK   91  A    between atoms: _213  and  _216
REMARK   92  A    between atoms: _216  and  _217
REMARK   93  A    between atoms: _217  and  _218
REMARK   94  A    between atoms: _218  and  _219
REMARK   95  A    between atoms: _219  and  _220
REMARK   96  A    between atoms: _224  and  _226
REMARK   97  A    between atoms: _226  and  _227
REMARK   98  A    between atoms: _226  and  _229
REMARK   99  A    between atoms: _229  and  _230
REMARK  100  A    between atoms: _235  and  _236
REMARK  101  A    between atoms: _238  and  _240
REMARK  102  A    between atoms: _240  and  _241
REMARK  103  A    between atoms: _240  and  _243
REMARK  104  A    between atoms: _243  and  _244
REMARK  105  A    between atoms: _244  and  _245
REMARK  106  A    between atoms: _248  and  _250
REMARK  107  A    between atoms: _250  and  _251
REMARK  108  A    between atoms: _250  and  _253
REMARK  109  A    between atoms: _253  and  _254
REMARK  110  A    between atoms: _257  and  _259
REMARK  111  A    between atoms: _259  and  _260
REMARK  112  A    between atoms: _263  and  _265
REMARK  113  A    between atoms: _265  and  _266
REMARK  114  A    between atoms: _265  and  _268
REMARK  115  A    between atoms: _268  and  _269
REMARK  116  A    between atoms: _269  and  _270
REMARK  117  A    between atoms: _272  and  _274
REMARK  118  A    between atoms: _274  and  _275
REMARK  119  A    between atoms: _274  and  _277
REMARK  120  A    between atoms: _277  and  _278
REMARK  121  A    between atoms: _278  and  _279
REMARK  122  A    between atoms: _279  and  _280
REMARK  123  A    between atoms: _280  and  _281
REMARK  124  A    between atoms: _285  and  _287
REMARK  125  A    between atoms: _287  and  _288
REMARK                            x       y       z     vdW  Elec       q    Type
REMARK                         _______ _______ _______ _____ _____    ______ ____
ROOT
ATOM      1  O   HOH     1     -36.073  21.778 -13.469  0.00  0.00    +0.000 OA
ENDROOT
TORSDOF 0
REMARK  Name = ../refined-set-2016/2pmk/2pmk_pocket.pdb
REMARK  125 active torsions:
REMARK  status: ('A' for Active; 'I' for Inactive)
REMARK    1  A    between atoms: _1  and  _3
REMARK    2  A    between atoms: _3  and  _4
REMARK    3  A    between atoms: _3  and  _6
REMARK    4  A    between atoms: _6  and  _7
REMARK    5  A    between atoms: _13  and  _15
REMARK    6  A    between atoms: _15  and  _16
REMARK    7  A    between atoms: _15  and  _18
REMARK    8  A    between atoms: _18  and  _19
REMARK    9  A    between atoms: _19  and  _20
REMARK   10  A    between atoms: _20  and  _21
REMARK   11  A    between atoms: _30  and  _32
REMARK   12  A    between atoms: _32  and  _33
REMARK   13  A    between atoms: _32  and  _35
REMARK   14  A    between atoms: _35  and  _36
REMARK   15  A    between atoms: _41  and  _42
REMARK   16  A    between atoms: _44  and  _46
REMARK   17  A    between atoms: _46  and  _47
REMARK   18  A    between atoms: _46  and  _49
REMARK   19  A    between atoms: _49  and  _50
REMARK   20  A    between atoms: _50  and  _51
REMARK   21  A    between atoms: _51  and  _52
REMARK   22  A    between atoms: _52  and  _53
REMARK   23  A    between atoms: _57  and  _59
REMARK   24  A    between atoms: _59  and  _60
REMARK   25  A    between atoms: _59  and  _62
REMARK   26  A    between atoms: _62  and  _63
REMARK   27  A    between atoms: _66  and  _67
REMARK   28  A    between atoms: _72  and  _74
REMARK   29  A    between atoms: _74  and  _75
REMARK   30  A    between atoms: _74  and  _77
REMARK   31  A    between atoms: _80  and  _82
REMARK   32  A    between atoms: _82  and  _83
REMARK   33  A    between atoms: _82  and  _85
REMARK   34  A    between atoms: _85  and  _86
REMARK   35  A    between atoms: _89  and  _91
REMARK   36  A    between atoms: _91  and  _92
REMARK   37  A    between atoms: _91  and  _94
REMARK   38  A    between atoms: _94  and  _95
REMARK   39  A    between atoms: _98  and  _100
REMARK   40  A    between atoms: _100  and  _101
REMARK   41  A    between atoms: _100  and  _103
REMARK   42  A    between atoms: _103  and  _104
REMARK   43  A    between atoms: _107  and  _109
REMARK   44  A    between atoms: _109  and  _110
REMARK   45  A    between atoms: _109  and  _112
REMARK   46  A    between atoms: _115  and  _117
REMARK   47  A    between atoms: _117  and  _118
REMARK   48  A    between atoms: _120  and  _122
REMARK   49  A    between atoms: _122  and  _123
REMARK   50  A    between atoms: _122  and  _125
REMARK   51  A    between atoms: _125  and  _126
REMARK   52  A    between atoms: _126  and  _127
REMARK   53  A    between atoms: _127  and  _128
REMARK   54  A    between atoms: _137  and  _139
REMARK   55  A    between atoms: _139  and  _140
REMARK   56  A    between atoms: _139  and  _142
REMARK   57  A    between atoms: _142  and  _143
REMARK   58  A    between atoms: _145  and  _147
REMARK   59  A    between atoms: _147  and  _148
REMARK   60  A    between atoms: _150  and  _152
REMARK   61  A    between atoms: _152  and  _153
REMARK   62  A    between atoms: _152  and  _155
REMARK   63  A    between atoms: _155  and  _156
REMARK   64  A    between atoms: _158  and  _160
REMARK   65  A    between atoms: _160  and  _161
REMARK   66  A    between atoms: _163  and  _165
REMARK   67  A    between atoms: _165  and  _166
REMARK   68  A    between atoms: _165  and  _168
REMARK   69  A    between atoms: _168  and  _169
REMARK   70  A    between atoms: _169  and  _170
REMARK   71  A    between atoms: _170  and  _171
REMARK   72  A    between atoms: _171  and  _172
REMARK   73  A    between atoms: _176  and  _178
REMARK   74  A    between atoms: _178  and  _179
REMARK   75  A    between atoms: _178  and  _181
REMARK   76  A    between atoms: _181  and  _182
REMARK   77  A    between atoms: _184  and  _186
REMARK   78  A    between atoms: _186  and  _187
REMARK   79  A    between atoms: _186  and  _189
REMARK   80  A    between atoms: _189  and  _190
REMARK   81  A    between atoms: _193  and  _195
REMARK   82  A    between atoms: _195  and  _196
REMARK   83  A    between atoms: _195  and  _198
REMARK   84  A    between atoms: _198  and  _199
REMARK   85  A    between atoms: _202  and  _204
REMARK   86  A    between atoms: _204  and  _205
REMARK   87  A    between atoms: _204  and  _207
REMARK   88  A    between atoms: _207  and  _208
REMARK   89  A    between atoms: _211  and  _213
REMARK   90  A    between atoms: _213  and  _214
REMARK   91  A    between atoms: _213  and  _216
REMARK   92  A    between atoms: _216  and  _217
REMARK   93  A    between atoms: _217  and  _218
REMARK   94  A    between atoms: _218  and  _219
REMARK   95  A    between atoms: _219  and  _220
REMARK   96  A    between atoms: _224  and  _226
REMARK   97  A    between atoms: _226  and  _227
REMARK   98  A    between atoms: _226  and  _229
REMARK   99  A    between atoms: _229  and  _230
REMARK  100  A    between atoms: _235  and  _236
REMARK  101  A    between atoms: _238  and  _240
REMARK  102  A    between atoms: _240  and  _241
REMARK  103  A    between atoms: _240  and  _243
REMARK  104  A    between atoms: _243  and  _244
REMARK  105  A    between atoms: _244  and  _245
REMARK  106  A    between atoms: _248  and  _250
REMARK  107  A    between atoms: _250  and  _251
REMARK  108  A    between atoms: _250  and  _253
REMARK  109  A    between atoms: _253  and  _254
REMARK  110  A    between atoms: _257  and  _259
REMARK  111  A    between atoms: _259  and  _260
REMARK  112  A    between atoms: _263  and  _265
REMARK  113  A    between atoms: _265  and  _266
REMARK  114  A    between atoms: _265  and  _268
REMARK  115  A    between atoms: _268  and  _269
REMARK  116  A    between atoms: _269  and  _270
REMARK  117  A    between atoms: _272  and  _274
REMARK  118  A    between atoms: _274  and  _275
REMARK  119  A    between atoms: _274  and  _277
REMARK  120  A    between atoms: _277  and  _278
REMARK  121  A    between atoms: _278  and  _279
REMARK  122  A    between atoms: _279  and  _280
REMARK  123  A    between atoms: _280  and  _281
REMARK  124  A    between atoms: _285  and  _287
REMARK  125  A    between atoms: _287  and  _288
REMARK                            x       y       z     vdW  Elec       q    Type
REMARK                         _______ _______ _______ _____ _____    ______ ____
ROOT
ATOM      1  O   HOH     1     -22.819  13.802 -10.973  0.00  0.00    +0.000 OA
ENDROOT
TORSDOF 0
REMARK  Name = ../refined-set-2016/2pmk/2pmk_pocket.pdb
REMARK  125 active torsions:
REMARK  status: ('A' for Active; 'I' for Inactive)
REMARK    1  A    between atoms: _1  and  _3
REMARK    2  A    between atoms: _3  and  _4
REMARK    3  A    between atoms: _3  and  _6
REMARK    4  A    between atoms: _6  and  _7
REMARK    5  A    between atoms: _13  and  _15
REMARK    6  A    between atoms: _15  and  _16
REMARK    7  A    between atoms: _15  and  _18
REMARK    8  A    between atoms: _18  and  _19
REMARK    9  A    between atoms: _19  and  _20
REMARK   10  A    between atoms: _20  and  _21
REMARK   11  A    between atoms: _30  and  _32
REMARK   12  A    between atoms: _32  and  _33
REMARK   13  A    between atoms: _32  and  _35
REMARK   14  A    between atoms: _35  and  _36
REMARK   15  A    between atoms: _41  and  _42
REMARK   16  A    between atoms: _44  and  _46
REMARK   17  A    between atoms: _46  and  _47
REMARK   18  A    between atoms: _46  and  _49
REMARK   19  A    between atoms: _49  and  _50
REMARK   20  A    between atoms: _50  and  _51
REMARK   21  A    between atoms: _51  and  _52
REMARK   22  A    between atoms: _52  and  _53
REMARK   23  A    between atoms: _57  and  _59
REMARK   24  A    between atoms: _59  and  _60
REMARK   25  A    between atoms: _59  and  _62
REMARK   26  A    between atoms: _62  and  _63
REMARK   27  A    between atoms: _66  and  _67
REMARK   28  A    between atoms: _72  and  _74
REMARK   29  A    between atoms: _74  and  _75
REMARK   30  A    between atoms: _74  and  _77
REMARK   31  A    between atoms: _80  and  _82
REMARK   32  A    between atoms: _82  and  _83
REMARK   33  A    between atoms: _82  and  _85
REMARK   34  A    between atoms: _85  and  _86
REMARK   35  A    between atoms: _89  and  _91
REMARK   36  A    between atoms: _91  and  _92
REMARK   37  A    between atoms: _91  and  _94
REMARK   38  A    between atoms: _94  and  _95
REMARK   39  A    between atoms: _98  and  _100
REMARK   40  A    between atoms: _100  and  _101
REMARK   41  A    between atoms: _100  and  _103
REMARK   42  A    between atoms: _103  and  _104
REMARK   43  A    between atoms: _107  and  _109
REMARK   44  A    between atoms: _109  and  _110
REMARK   45  A    between atoms: _109  and  _112
REMARK   46  A    between atoms: _115  and  _117
REMARK   47  A    between atoms: _117  and  _118
REMARK   48  A    between atoms: _120  and  _122
REMARK   49  A    between atoms: _122  and  _123
REMARK   50  A    between atoms: _122  and  _125
REMARK   51  A    between atoms: _125  and  _126
REMARK   52  A    between atoms: _126  and  _127
REMARK   53  A    between atoms: _127  and  _128
REMARK   54  A    between atoms: _137  and  _139
REMARK   55  A    between atoms: _139  and  _140
REMARK   56  A    between atoms: _139  and  _142
REMARK   57  A    between atoms: _142  and  _143
REMARK   58  A    between atoms: _145  and  _147
REMARK   59  A    between atoms: _147  and  _148
REMARK   60  A    between atoms: _150  and  _152
REMARK   61  A    between atoms: _152  and  _153
REMARK   62  A    between atoms: _152  and  _155
REMARK   63  A    between atoms: _155  and  _156
REMARK   64  A    between atoms: _158  and  _160
REMARK   65  A    between atoms: _160  and  _161
REMARK   66  A    between atoms: _163  and  _165
REMARK   67  A    between atoms: _165  and  _166
REMARK   68  A    between atoms: _165  and  _168
REMARK   69  A    between atoms: _168  and  _169
REMARK   70  A    between atoms: _169  and  _170
REMARK   71  A    between atoms: _170  and  _171
REMARK   72  A    between atoms: _171  and  _172
REMARK   73  A    between atoms: _176  and  _178
REMARK   74  A    between atoms: _178  and  _179
REMARK   75  A    between atoms: _178  and  _181
REMARK   76  A    between atoms: _181  and  _182
REMARK   77  A    between atoms: _184  and  _186
REMARK   78  A    between atoms: _186  and  _187
REMARK   79  A    between atoms: _186  and  _189
REMARK   80  A    between atoms: _189  and  _190
REMARK   81  A    between atoms: _193  and  _195
REMARK   82  A    between atoms: _195  and  _196
REMARK   83  A    between atoms: _195  and  _198
REMARK   84  A    between atoms: _198  and  _199
REMARK   85  A    between atoms: _202  and  _204
REMARK   86  A    between atoms: _204  and  _205
REMARK   87  A    between atoms: _204  and  _207
REMARK   88  A    between atoms: _207  and  _208
REMARK   89  A    between atoms: _211  and  _213
REMARK   90  A    between atoms: _213  and  _214
REMARK   91  A    between atoms: _213  and  _216
REMARK   92  A    between atoms: _216  and  _217
REMARK   93  A    between atoms: _217  and  _218
REMARK   94  A    between atoms: _218  and  _219
REMARK   95  A    between atoms: _219  and  _220
REMARK   96  A    between atoms: _224  and  _226
REMARK   97  A    between atoms: _226  and  _227
REMARK   98  A    between atoms: _226  and  _229
REMARK   99  A    between atoms: _229  and  _230
REMARK  100  A    between atoms: _235  and  _236
REMARK  101  A    between atoms: _238  and  _240
REMARK  102  A    between atoms: _240  and  _241
REMARK  103  A    between atoms: _240  and  _243
REMARK  104  A    between atoms: _243  and  _244
REMARK  105  A    between atoms: _244  and  _245
REMARK  106  A    between atoms: _248  and  _250
REMARK  107  A    between atoms: _250  and  _251
REMARK  108  A    between atoms: _250  and  _253
REMARK  109  A    between atoms: _253  and  _254
REMARK  110  A    between atoms: _257  and  _259
REMARK  111  A    between atoms: _259  and  _260
REMARK  112  A    between atoms: _263  and  _265
REMARK  113  A    between atoms: _265  and  _266
REMARK  114  A    between atoms: _265  and  _268
REMARK  115  A    between atoms: _268  and  _269
REMARK  116  A    between atoms: _269  and  _270
REMARK  117  A    between atoms: _272  and  _274
REMARK  118  A    between atoms: _274  and  _275
REMARK  119  A    between atoms: _274  and  _277
REMARK  120  A    between atoms: _277  and  _278
REMARK  121  A    between atoms: _278  and  _279
REMARK  122  A    between atoms: _279  and  _280
REMARK  123  A    between atoms: _280  and  _281
REMARK  124  A    between atoms: _285  and  _287
REMARK  125  A    between atoms: _287  and  _288
REMARK                            x       y       z     vdW  Elec       q    Type
REMARK                         _______ _______ _______ _____ _____    ______ ____
ROOT
ATOM      1  O   HOH     1     -20.571  18.153  -5.250  0.00  0.00    +0.000 OA
ENDROOT
TORSDOF 0
REMARK  Name = ../refined-set-2016/2pmk/2pmk_pocket.pdb
REMARK  125 active torsions:
REMARK  status: ('A' for Active; 'I' for Inactive)
REMARK    1  A    between atoms: _1  and  _3
REMARK    2  A    between atoms: _3  and  _4
REMARK    3  A    between atoms: _3  and  _6
REMARK    4  A    between atoms: _6  and  _7
REMARK    5  A    between atoms: _13  and  _15
REMARK    6  A    between atoms: _15  and  _16
REMARK    7  A    between atoms: _15  and  _18
REMARK    8  A    between atoms: _18  and  _19
REMARK    9  A    between atoms: _19  and  _20
REMARK   10  A    between atoms: _20  and  _21
REMARK   11  A    between atoms: _30  and  _32
REMARK   12  A    between atoms: _32  and  _33
REMARK   13  A    between atoms: _32  and  _35
REMARK   14  A    between atoms: _35  and  _36
REMARK   15  A    between atoms: _41  and  _42
REMARK   16  A    between atoms: _44  and  _46
REMARK   17  A    between atoms: _46  and  _47
REMARK   18  A    between atoms: _46  and  _49
REMARK   19  A    between atoms: _49  and  _50
REMARK   20  A    between atoms: _50  and  _51
REMARK   21  A    between atoms: _51  and  _52
REMARK   22  A    between atoms: _52  and  _53
REMARK   23  A    between atoms: _57  and  _59
REMARK   24  A    between atoms: _59  and  _60
REMARK   25  A    between atoms: _59  and  _62
REMARK   26  A    between atoms: _62  and  _63
REMARK   27  A    between atoms: _66  and  _67
REMARK   28  A    between atoms: _72  and  _74
REMARK   29  A    between atoms: _74  and  _75
REMARK   30  A    between atoms: _74  and  _77
REMARK   31  A    between atoms: _80  and  _82
REMARK   32  A    between atoms: _82  and  _83
REMARK   33  A    between atoms: _82  and  _85
REMARK   34  A    between atoms: _85  and  _86
REMARK   35  A    between atoms: _89  and  _91
REMARK   36  A    between atoms: _91  and  _92
REMARK   37  A    between atoms: _91  and  _94
REMARK   38  A    between atoms: _94  and  _95
REMARK   39  A    between atoms: _98  and  _100
REMARK   40  A    between atoms: _100  and  _101
REMARK   41  A    between atoms: _100  and  _103
REMARK   42  A    between atoms: _103  and  _104
REMARK   43  A    between atoms: _107  and  _109
REMARK   44  A    between atoms: _109  and  _110
REMARK   45  A    between atoms: _109  and  _112
REMARK   46  A    between atoms: _115  and  _117
REMARK   47  A    between atoms: _117  and  _118
REMARK   48  A    between atoms: _120  and  _122
REMARK   49  A    between atoms: _122  and  _123
REMARK   50  A    between atoms: _122  and  _125
REMARK   51  A    between atoms: _125  and  _126
REMARK   52  A    between atoms: _126  and  _127
REMARK   53  A    between atoms: _127  and  _128
REMARK   54  A    between atoms: _137  and  _139
REMARK   55  A    between atoms: _139  and  _140
REMARK   56  A    between atoms: _139  and  _142
REMARK   57  A    between atoms: _142  and  _143
REMARK   58  A    between atoms: _145  and  _147
REMARK   59  A    between atoms: _147  and  _148
REMARK   60  A    between atoms: _150  and  _152
REMARK   61  A    between atoms: _152  and  _153
REMARK   62  A    between atoms: _152  and  _155
REMARK   63  A    between atoms: _155  and  _156
REMARK   64  A    between atoms: _158  and  _160
REMARK   65  A    between atoms: _160  and  _161
REMARK   66  A    between atoms: _163  and  _165
REMARK   67  A    between atoms: _165  and  _166
REMARK   68  A    between atoms: _165  and  _168
REMARK   69  A    between atoms: _168  and  _169
REMARK   70  A    between atoms: _169  and  _170
REMARK   71  A    between atoms: _170  and  _171
REMARK   72  A    between atoms: _171  and  _172
REMARK   73  A    between atoms: _176  and  _178
REMARK   74  A    between atoms: _178  and  _179
REMARK   75  A    between atoms: _178  and  _181
REMARK   76  A    between atoms: _181  and  _182
REMARK   77  A    between atoms: _184  and  _186
REMARK   78  A    between atoms: _186  and  _187
REMARK   79  A    between atoms: _186  and  _189
REMARK   80  A    between atoms: _189  and  _190
REMARK   81  A    between atoms: _193  and  _195
REMARK   82  A    between atoms: _195  and  _196
REMARK   83  A    between atoms: _195  and  _198
REMARK   84  A    between atoms: _198  and  _199
REMARK   85  A    between atoms: _202  and  _204
REMARK   86  A    between atoms: _204  and  _205
REMARK   87  A    between atoms: _204  and  _207
REMARK   88  A    between atoms: _207  and  _208
REMARK   89  A    between atoms: _211  and  _213
REMARK   90  A    between atoms: _213  and  _214
REMARK   91  A    between atoms: _213  and  _216
REMARK   92  A    between atoms: _216  and  _217
REMARK   93  A    between atoms: _217  and  _218
REMARK   94  A    between atoms: _218  and  _219
REMARK   95  A    between atoms: _219  and  _220
REMARK   96  A    between atoms: _224  and  _226
REMARK   97  A    between atoms: _226  and  _227
REMARK   98  A    between atoms: _226  and  _229
REMARK   99  A    between atoms: _229  and  _230
REMARK  100  A    between atoms: _235  and  _236
REMARK  101  A    between atoms: _238  and  _240
REMARK  102  A    between atoms: _240  and  _241
REMARK  103  A    between atoms: _240  and  _243
REMARK  104  A    between atoms: _243  and  _244
REMARK  105  A    between atoms: _244  and  _245
REMARK  106  A    between atoms: _248  and  _250
REMARK  107  A    between atoms: _250  and  _251
REMARK  108  A    between atoms: _250  and  _253
REMARK  109  A    between atoms: _253  and  _254
REMARK  110  A    between atoms: _257  and  _259
REMARK  111  A    between atoms: _259  and  _260
REMARK  112  A    between atoms: _263  and  _265
REMARK  113  A    between atoms: _265  and  _266
REMARK  114  A    between atoms: _265  and  _268
REMARK  115  A    between atoms: _268  and  _269
REMARK  116  A    between atoms: _269  and  _270
REMARK  117  A    between atoms: _272  and  _274
REMARK  118  A    between atoms: _274  and  _275
REMARK  119  A    between atoms: _274  and  _277
REMARK  120  A    between atoms: _277  and  _278
REMARK  121  A    between atoms: _278  and  _279
REMARK  122  A    between atoms: _279  and  _280
REMARK  123  A    between atoms: _280  and  _281
REMARK  124  A    between atoms: _285  and  _287
REMARK  125  A    between atoms: _287  and  _288
REMARK                            x       y       z     vdW  Elec       q    Type
REMARK                         _______ _______ _______ _____ _____    ______ ____
ROOT
ATOM      1  O   HOH     1     -33.524  22.588 -14.357  0.00  0.00    +0.000 OA
ENDROOT
TORSDOF 0
REMARK  Name = ../refined-set-2016/2pmk/2pmk_pocket.pdb
REMARK  125 active torsions:
REMARK  status: ('A' for Active; 'I' for Inactive)
REMARK    1  A    between atoms: _1  and  _3
REMARK    2  A    between atoms: _3  and  _4
REMARK    3  A    between atoms: _3  and  _6
REMARK    4  A    between atoms: _6  and  _7
REMARK    5  A    between atoms: _13  and  _15
REMARK    6  A    between atoms: _15  and  _16
REMARK    7  A    between atoms: _15  and  _18
REMARK    8  A    between atoms: _18  and  _19
REMARK    9  A    between atoms: _19  and  _20
REMARK   10  A    between atoms: _20  and  _21
REMARK   11  A    between atoms: _30  and  _32
REMARK   12  A    between atoms: _32  and  _33
REMARK   13  A    between atoms: _32  and  _35
REMARK   14  A    between atoms: _35  and  _36
REMARK   15  A    between atoms: _41  and  _42
REMARK   16  A    between atoms: _44  and  _46
REMARK   17  A    between atoms: _46  and  _47
REMARK   18  A    between atoms: _46  and  _49
REMARK   19  A    between atoms: _49  and  _50
REMARK   20  A    between atoms: _50  and  _51
REMARK   21  A    between atoms: _51  and  _52
REMARK   22  A    between atoms: _52  and  _53
REMARK   23  A    between atoms: _57  and  _59
REMARK   24  A    between atoms: _59  and  _60
REMARK   25  A    between atoms: _59  and  _62
REMARK   26  A    between atoms: _62  and  _63
REMARK   27  A    between atoms: _66  and  _67
REMARK   28  A    between atoms: _72  and  _74
REMARK   29  A    between atoms: _74  and  _75
REMARK   30  A    between atoms: _74  and  _77
REMARK   31  A    between atoms: _80  and  _82
REMARK   32  A    between atoms: _82  and  _83
REMARK   33  A    between atoms: _82  and  _85
REMARK   34  A    between atoms: _85  and  _86
REMARK   35  A    between atoms: _89  and  _91
REMARK   36  A    between atoms: _91  and  _92
REMARK   37  A    between atoms: _91  and  _94
REMARK   38  A    between atoms: _94  and  _95
REMARK   39  A    between atoms: _98  and  _100
REMARK   40  A    between atoms: _100  and  _101
REMARK   41  A    between atoms: _100  and  _103
REMARK   42  A    between atoms: _103  and  _104
REMARK   43  A    between atoms: _107  and  _109
REMARK   44  A    between atoms: _109  and  _110
REMARK   45  A    between atoms: _109  and  _112
REMARK   46  A    between atoms: _115  and  _117
REMARK   47  A    between atoms: _117  and  _118
REMARK   48  A    between atoms: _120  and  _122
REMARK   49  A    between atoms: _122  and  _123
REMARK   50  A    between atoms: _122  and  _125
REMARK   51  A    between atoms: _125  and  _126
REMARK   52  A    between atoms: _126  and  _127
REMARK   53  A    between atoms: _127  and  _128
REMARK   54  A    between atoms: _137  and  _139
REMARK   55  A    between atoms: _139  and  _140
REMARK   56  A    between atoms: _139  and  _142
REMARK   57  A    between atoms: _142  and  _143
REMARK   58  A    between atoms: _145  and  _147
REMARK   59  A    between atoms: _147  and  _148
REMARK   60  A    between atoms: _150  and  _152
REMARK   61  A    between atoms: _152  and  _153
REMARK   62  A    between atoms: _152  and  _155
REMARK   63  A    between atoms: _155  and  _156
REMARK   64  A    between atoms: _158  and  _160
REMARK   65  A    between atoms: _160  and  _161
REMARK   66  A    between atoms: _163  and  _165
REMARK   67  A    between atoms: _165  and  _166
REMARK   68  A    between atoms: _165  and  _168
REMARK   69  A    between atoms: _168  and  _169
REMARK   70  A    between atoms: _169  and  _170
REMARK   71  A    between atoms: _170  and  _171
REMARK   72  A    between atoms: _171  and  _172
REMARK   73  A    between atoms: _176  and  _178
REMARK   74  A    between atoms: _178  and  _179
REMARK   75  A    between atoms: _178  and  _181
REMARK   76  A    between atoms: _181  and  _182
REMARK   77  A    between atoms: _184  and  _186
REMARK   78  A    between atoms: _186  and  _187
REMARK   79  A    between atoms: _186  and  _189
REMARK   80  A    between atoms: _189  and  _190
REMARK   81  A    between atoms: _193  and  _195
REMARK   82  A    between atoms: _195  and  _196
REMARK   83  A    between atoms: _195  and  _198
REMARK   84  A    between atoms: _198  and  _199
REMARK   85  A    between atoms: _202  and  _204
REMARK   86  A    between atoms: _204  and  _205
REMARK   87  A    between atoms: _204  and  _207
REMARK   88  A    between atoms: _207  and  _208
REMARK   89  A    between atoms: _211  and  _213
REMARK   90  A    between atoms: _213  and  _214
REMARK   91  A    between atoms: _213  and  _216
REMARK   92  A    between atoms: _216  and  _217
REMARK   93  A    between atoms: _217  and  _218
REMARK   94  A    between atoms: _218  and  _219
REMARK   95  A    between atoms: _219  and  _220
REMARK   96  A    between atoms: _224  and  _226
REMARK   97  A    between atoms: _226  and  _227
REMARK   98  A    between atoms: _226  and  _229
REMARK   99  A    between atoms: _229  and  _230
REMARK  100  A    between atoms: _235  and  _236
REMARK  101  A    between atoms: _238  and  _240
REMARK  102  A    between atoms: _240  and  _241
REMARK  103  A    between atoms: _240  and  _243
REMARK  104  A    between atoms: _243  and  _244
REMARK  105  A    between atoms: _244  and  _245
REMARK  106  A    between atoms: _248  and  _250
REMARK  107  A    between atoms: _250  and  _251
REMARK  108  A    between atoms: _250  and  _253
REMARK  109  A    between atoms: _253  and  _254
REMARK  110  A    between atoms: _257  and  _259
REMARK  111  A    between atoms: _259  and  _260
REMARK  112  A    between atoms: _263  and  _265
REMARK  113  A    between atoms: _265  and  _266
REMARK  114  A    between atoms: _265  and  _268
REMARK  115  A    between atoms: _268  and  _269
REMARK  116  A    between atoms: _269  and  _270
REMARK  117  A    between atoms: _272  and  _274
REMARK  118  A    between atoms: _274  and  _275
REMARK  119  A    between atoms: _274  and  _277
REMARK  120  A    between atoms: _277  and  _278
REMARK  121  A    between atoms: _278  and  _279
REMARK  122  A    between atoms: _279  and  _280
REMARK  123  A    between atoms: _280  and  _281
REMARK  124  A    between atoms: _285  and  _287
REMARK  125  A    between atoms: _287  and  _288
REMARK                            x       y       z     vdW  Elec       q    Type
REMARK                         _______ _______ _______ _____ _____    ______ ____
ROOT
ATOM      1  O   HOH     1     -21.765  11.239 -16.591  0.00  0.00    +0.000 OA
ENDROOT
TORSDOF 0
REMARK  Name = ../refined-set-2016/2pmk/2pmk_pocket.pdb
REMARK  125 active torsions:
REMARK  status: ('A' for Active; 'I' for Inactive)
REMARK    1  A    between atoms: _1  and  _3
REMARK    2  A    between atoms: _3  and  _4
REMARK    3  A    between atoms: _3  and  _6
REMARK    4  A    between atoms: _6  and  _7
REMARK    5  A    between atoms: _13  and  _15
REMARK    6  A    between atoms: _15  and  _16
REMARK    7  A    between atoms: _15  and  _18
REMARK    8  A    between atoms: _18  and  _19
REMARK    9  A    between atoms: _19  and  _20
REMARK   10  A    between atoms: _20  and  _21
REMARK   11  A    between atoms: _30  and  _32
REMARK   12  A    between atoms: _32  and  _33
REMARK   13  A    between atoms: _32  and  _35
REMARK   14  A    between atoms: _35  and  _36
REMARK   15  A    between atoms: _41  and  _42
REMARK   16  A    between atoms: _44  and  _46
REMARK   17  A    between atoms: _46  and  _47
REMARK   18  A    between atoms: _46  and  _49
REMARK   19  A    between atoms: _49  and  _50
REMARK   20  A    between atoms: _50  and  _51
REMARK   21  A    between atoms: _51  and  _52
REMARK   22  A    between atoms: _52  and  _53
REMARK   23  A    between atoms: _57  and  _59
REMARK   24  A    between atoms: _59  and  _60
REMARK   25  A    between atoms: _59  and  _62
REMARK   26  A    between atoms: _62  and  _63
REMARK   27  A    between atoms: _66  and  _67
REMARK   28  A    between atoms: _72  and  _74
REMARK   29  A    between atoms: _74  and  _75
REMARK   30  A    between atoms: _74  and  _77
REMARK   31  A    between atoms: _80  and  _82
REMARK   32  A    between atoms: _82  and  _83
REMARK   33  A    between atoms: _82  and  _85
REMARK   34  A    between atoms: _85  and  _86
REMARK   35  A    between atoms: _89  and  _91
REMARK   36  A    between atoms: _91  and  _92
REMARK   37  A    between atoms: _91  and  _94
REMARK   38  A    between atoms: _94  and  _95
REMARK   39  A    between atoms: _98  and  _100
REMARK   40  A    between atoms: _100  and  _101
REMARK   41  A    between atoms: _100  and  _103
REMARK   42  A    between atoms: _103  and  _104
REMARK   43  A    between atoms: _107  and  _109
REMARK   44  A    between atoms: _109  and  _110
REMARK   45  A    between atoms: _109  and  _112
REMARK   46  A    between atoms: _115  and  _117
REMARK   47  A    between atoms: _117  and  _118
REMARK   48  A    between atoms: _120  and  _122
REMARK   49  A    between atoms: _122  and  _123
REMARK   50  A    between atoms: _122  and  _125
REMARK   51  A    between atoms: _125  and  _126
REMARK   52  A    between atoms: _126  and  _127
REMARK   53  A    between atoms: _127  and  _128
REMARK   54  A    between atoms: _137  and  _139
REMARK   55  A    between atoms: _139  and  _140
REMARK   56  A    between atoms: _139  and  _142
REMARK   57  A    between atoms: _142  and  _143
REMARK   58  A    between atoms: _145  and  _147
REMARK   59  A    between atoms: _147  and  _148
REMARK   60  A    between atoms: _150  and  _152
REMARK   61  A    between atoms: _152  and  _153
REMARK   62  A    between atoms: _152  and  _155
REMARK   63  A    between atoms: _155  and  _156
REMARK   64  A    between atoms: _158  and  _160
REMARK   65  A    between atoms: _160  and  _161
REMARK   66  A    between atoms: _163  and  _165
REMARK   67  A    between atoms: _165  and  _166
REMARK   68  A    between atoms: _165  and  _168
REMARK   69  A    between atoms: _168  and  _169
REMARK   70  A    between atoms: _169  and  _170
REMARK   71  A    between atoms: _170  and  _171
REMARK   72  A    between atoms: _171  and  _172
REMARK   73  A    between atoms: _176  and  _178
REMARK   74  A    between atoms: _178  and  _179
REMARK   75  A    between atoms: _178  and  _181
REMARK   76  A    between atoms: _181  and  _182
REMARK   77  A    between atoms: _184  and  _186
REMARK   78  A    between atoms: _186  and  _187
REMARK   79  A    between atoms: _186  and  _189
REMARK   80  A    between atoms: _189  and  _190
REMARK   81  A    between atoms: _193  and  _195
REMARK   82  A    between atoms: _195  and  _196
REMARK   83  A    between atoms: _195  and  _198
REMARK   84  A    between atoms: _198  and  _199
REMARK   85  A    between atoms: _202  and  _204
REMARK   86  A    between atoms: _204  and  _205
REMARK   87  A    between atoms: _204  and  _207
REMARK   88  A    between atoms: _207  and  _208
REMARK   89  A    between atoms: _211  and  _213
REMARK   90  A    between atoms: _213  and  _214
REMARK   91  A    between atoms: _213  and  _216
REMARK   92  A    between atoms: _216  and  _217
REMARK   93  A    between atoms: _217  and  _218
REMARK   94  A    between atoms: _218  and  _219
REMARK   95  A    between atoms: _219  and  _220
REMARK   96  A    between atoms: _224  and  _226
REMARK   97  A    between atoms: _226  and  _227
REMARK   98  A    between atoms: _226  and  _229
REMARK   99  A    between atoms: _229  and  _230
REMARK  100  A    between atoms: _235  and  _236
REMARK  101  A    between atoms: _238  and  _240
REMARK  102  A    between atoms: _240  and  _241
REMARK  103  A    between atoms: _240  and  _243
REMARK  104  A    between atoms: _243  and  _244
REMARK  105  A    between atoms: _244  and  _245
REMARK  106  A    between atoms: _248  and  _250
REMARK  107  A    between atoms: _250  and  _251
REMARK  108  A    between atoms: _250  and  _253
REMARK  109  A    between atoms: _253  and  _254
REMARK  110  A    between atoms: _257  and  _259
REMARK  111  A    between atoms: _259  and  _260
REMARK  112  A    between atoms: _263  and  _265
REMARK  113  A    between atoms: _265  and  _266
REMARK  114  A    between atoms: _265  and  _268
REMARK  115  A    between atoms: _268  and  _269
REMARK  116  A    between atoms: _269  and  _270
REMARK  117  A    between atoms: _272  and  _274
REMARK  118  A    between atoms: _274  and  _275
REMARK  119  A    between atoms: _274  and  _277
REMARK  120  A    between atoms: _277  and  _278
REMARK  121  A    between atoms: _278  and  _279
REMARK  122  A    between atoms: _279  and  _280
REMARK  123  A    between atoms: _280  and  _281
REMARK  124  A    between atoms: _285  and  _287
REMARK  125  A    between atoms: _287  and  _288
REMARK                            x       y       z     vdW  Elec       q    Type
REMARK                         _______ _______ _______ _____ _____    ______ ____
ROOT
ATOM      1  O   HOH     1     -26.937  20.392  -8.429  0.00  0.00    +0.000 OA
ENDROOT
TORSDOF 0
REMARK  Name = ../refined-set-2016/2pmk/2pmk_pocket.pdb
REMARK  125 active torsions:
REMARK  status: ('A' for Active; 'I' for Inactive)
REMARK    1  A    between atoms: _1  and  _3
REMARK    2  A    between atoms: _3  and  _4
REMARK    3  A    between atoms: _3  and  _6
REMARK    4  A    between atoms: _6  and  _7
REMARK    5  A    between atoms: _13  and  _15
REMARK    6  A    between atoms: _15  and  _16
REMARK    7  A    between atoms: _15  and  _18
REMARK    8  A    between atoms: _18  and  _19
REMARK    9  A    between atoms: _19  and  _20
REMARK   10  A    between atoms: _20  and  _21
REMARK   11  A    between atoms: _30  and  _32
REMARK   12  A    between atoms: _32  and  _33
REMARK   13  A    between atoms: _32  and  _35
REMARK   14  A    between atoms: _35  and  _36
REMARK   15  A    between atoms: _41  and  _42
REMARK   16  A    between atoms: _44  and  _46
REMARK   17  A    between atoms: _46  and  _47
REMARK   18  A    between atoms: _46  and  _49
REMARK   19  A    between atoms: _49  and  _50
REMARK   20  A    between atoms: _50  and  _51
REMARK   21  A    between atoms: _51  and  _52
REMARK   22  A    between atoms: _52  and  _53
REMARK   23  A    between atoms: _57  and  _59
REMARK   24  A    between atoms: _59  and  _60
REMARK   25  A    between atoms: _59  and  _62
REMARK   26  A    between atoms: _62  and  _63
REMARK   27  A    between atoms: _66  and  _67
REMARK   28  A    between atoms: _72  and  _74
REMARK   29  A    between atoms: _74  and  _75
REMARK   30  A    between atoms: _74  and  _77
REMARK   31  A    between atoms: _80  and  _82
REMARK   32  A    between atoms: _82  and  _83
REMARK   33  A    between atoms: _82  and  _85
REMARK   34  A    between atoms: _85  and  _86
REMARK   35  A    between atoms: _89  and  _91
REMARK   36  A    between atoms: _91  and  _92
REMARK   37  A    between atoms: _91  and  _94
REMARK   38  A    between atoms: _94  and  _95
REMARK   39  A    between atoms: _98  and  _100
REMARK   40  A    between atoms: _100  and  _101
REMARK   41  A    between atoms: _100  and  _103
REMARK   42  A    between atoms: _103  and  _104
REMARK   43  A    between atoms: _107  and  _109
REMARK   44  A    between atoms: _109  and  _110
REMARK   45  A    between atoms: _109  and  _112
REMARK   46  A    between atoms: _115  and  _117
REMARK   47  A    between atoms: _117  and  _118
REMARK   48  A    between atoms: _120  and  _122
REMARK   49  A    between atoms: _122  and  _123
REMARK   50  A    between atoms: _122  and  _125
REMARK   51  A    between atoms: _125  and  _126
REMARK   52  A    between atoms: _126  and  _127
REMARK   53  A    between atoms: _127  and  _128
REMARK   54  A    between atoms: _137  and  _139
REMARK   55  A    between atoms: _139  and  _140
REMARK   56  A    between atoms: _139  and  _142
REMARK   57  A    between atoms: _142  and  _143
REMARK   58  A    between atoms: _145  and  _147
REMARK   59  A    between atoms: _147  and  _148
REMARK   60  A    between atoms: _150  and  _152
REMARK   61  A    between atoms: _152  and  _153
REMARK   62  A    between atoms: _152  and  _155
REMARK   63  A    between atoms: _155  and  _156
REMARK   64  A    between atoms: _158  and  _160
REMARK   65  A    between atoms: _160  and  _161
REMARK   66  A    between atoms: _163  and  _165
REMARK   67  A    between atoms: _165  and  _166
REMARK   68  A    between atoms: _165  and  _168
REMARK   69  A    between atoms: _168  and  _169
REMARK   70  A    between atoms: _169  and  _170
REMARK   71  A    between atoms: _170  and  _171
REMARK   72  A    between atoms: _171  and  _172
REMARK   73  A    between atoms: _176  and  _178
REMARK   74  A    between atoms: _178  and  _179
REMARK   75  A    between atoms: _178  and  _181
REMARK   76  A    between atoms: _181  and  _182
REMARK   77  A    between atoms: _184  and  _186
REMARK   78  A    between atoms: _186  and  _187
REMARK   79  A    between atoms: _186  and  _189
REMARK   80  A    between atoms: _189  and  _190
REMARK   81  A    between atoms: _193  and  _195
REMARK   82  A    between atoms: _195  and  _196
REMARK   83  A    between atoms: _195  and  _198
REMARK   84  A    between atoms: _198  and  _199
REMARK   85  A    between atoms: _202  and  _204
REMARK   86  A    between atoms: _204  and  _205
REMARK   87  A    between atoms: _204  and  _207
REMARK   88  A    between atoms: _207  and  _208
REMARK   89  A    between atoms: _211  and  _213
REMARK   90  A    between atoms: _213  and  _214
REMARK   91  A    between atoms: _213  and  _216
REMARK   92  A    between atoms: _216  and  _217
REMARK   93  A    between atoms: _217  and  _218
REMARK   94  A    between atoms: _218  and  _219
REMARK   95  A    between atoms: _219  and  _220
REMARK   96  A    between atoms: _224  and  _226
REMARK   97  A    between atoms: _226  and  _227
REMARK   98  A    between atoms: _226  and  _229
REMARK   99  A    between atoms: _229  and  _230
REMARK  100  A    between atoms: _235  and  _236
REMARK  101  A    between atoms: _238  and  _240
REMARK  102  A    between atoms: _240  and  _241
REMARK  103  A    between atoms: _240  and  _243
REMARK  104  A    between atoms: _243  and  _244
REMARK  105  A    between atoms: _244  and  _245
REMARK  106  A    between atoms: _248  and  _250
REMARK  107  A    between atoms: _250  and  _251
REMARK  108  A    between atoms: _250  and  _253
REMARK  109  A    between atoms: _253  and  _254
REMARK  110  A    between atoms: _257  and  _259
REMARK  111  A    between atoms: _259  and  _260
REMARK  112  A    between atoms: _263  and  _265
REMARK  113  A    between atoms: _265  and  _266
REMARK  114  A    between atoms: _265  and  _268
REMARK  115  A    between atoms: _268  and  _269
REMARK  116  A    between atoms: _269  and  _270
REMARK  117  A    between atoms: _272  and  _274
REMARK  118  A    between atoms: _274  and  _275
REMARK  119  A    between atoms: _274  and  _277
REMARK  120  A    between atoms: _277  and  _278
REMARK  121  A    between atoms: _278  and  _279
REMARK  122  A    between atoms: _279  and  _280
REMARK  123  A    between atoms: _280  and  _281
REMARK  124  A    between atoms: _285  and  _287
REMARK  125  A    between atoms: _287  and  _288
REMARK                            x       y       z     vdW  Elec       q    Type
REMARK                         _______ _______ _______ _____ _____    ______ ____
ROOT
ATOM      1  O   HOH     1     -25.844  19.982 -11.464  0.00  0.00    +0.000 OA
ENDROOT
TORSDOF 0
REMARK  Name = ../refined-set-2016/2pmk/2pmk_pocket.pdb
REMARK  125 active torsions:
REMARK  status: ('A' for Active; 'I' for Inactive)
REMARK    1  A    between atoms: _1  and  _3
REMARK    2  A    between atoms: _3  and  _4
REMARK    3  A    between atoms: _3  and  _6
REMARK    4  A    between atoms: _6  and  _7
REMARK    5  A    between atoms: _13  and  _15
REMARK    6  A    between atoms: _15  and  _16
REMARK    7  A    between atoms: _15  and  _18
REMARK    8  A    between atoms: _18  and  _19
REMARK    9  A    between atoms: _19  and  _20
REMARK   10  A    between atoms: _20  and  _21
REMARK   11  A    between atoms: _30  and  _32
REMARK   12  A    between atoms: _32  and  _33
REMARK   13  A    between atoms: _32  and  _35
REMARK   14  A    between atoms: _35  and  _36
REMARK   15  A    between atoms: _41  and  _42
REMARK   16  A    between atoms: _44  and  _46
REMARK   17  A    between atoms: _46  and  _47
REMARK   18  A    between atoms: _46  and  _49
REMARK   19  A    between atoms: _49  and  _50
REMARK   20  A    between atoms: _50  and  _51
REMARK   21  A    between atoms: _51  and  _52
REMARK   22  A    between atoms: _52  and  _53
REMARK   23  A    between atoms: _57  and  _59
REMARK   24  A    between atoms: _59  and  _60
REMARK   25  A    between atoms: _59  and  _62
REMARK   26  A    between atoms: _62  and  _63
REMARK   27  A    between atoms: _66  and  _67
REMARK   28  A    between atoms: _72  and  _74
REMARK   29  A    between atoms: _74  and  _75
REMARK   30  A    between atoms: _74  and  _77
REMARK   31  A    between atoms: _80  and  _82
REMARK   32  A    between atoms: _82  and  _83
REMARK   33  A    between atoms: _82  and  _85
REMARK   34  A    between atoms: _85  and  _86
REMARK   35  A    between atoms: _89  and  _91
REMARK   36  A    between atoms: _91  and  _92
REMARK   37  A    between atoms: _91  and  _94
REMARK   38  A    between atoms: _94  and  _95
REMARK   39  A    between atoms: _98  and  _100
REMARK   40  A    between atoms: _100  and  _101
REMARK   41  A    between atoms: _100  and  _103
REMARK   42  A    between atoms: _103  and  _104
REMARK   43  A    between atoms: _107  and  _109
REMARK   44  A    between atoms: _109  and  _110
REMARK   45  A    between atoms: _109  and  _112
REMARK   46  A    between atoms: _115  and  _117
REMARK   47  A    between atoms: _117  and  _118
REMARK   48  A    between atoms: _120  and  _122
REMARK   49  A    between atoms: _122  and  _123
REMARK   50  A    between atoms: _122  and  _125
REMARK   51  A    between atoms: _125  and  _126
REMARK   52  A    between atoms: _126  and  _127
REMARK   53  A    between atoms: _127  and  _128
REMARK   54  A    between atoms: _137  and  _139
REMARK   55  A    between atoms: _139  and  _140
REMARK   56  A    between atoms: _139  and  _142
REMARK   57  A    between atoms: _142  and  _143
REMARK   58  A    between atoms: _145  and  _147
REMARK   59  A    between atoms: _147  and  _148
REMARK   60  A    between atoms: _150  and  _152
REMARK   61  A    between atoms: _152  and  _153
REMARK   62  A    between atoms: _152  and  _155
REMARK   63  A    between atoms: _155  and  _156
REMARK   64  A    between atoms: _158  and  _160
REMARK   65  A    between atoms: _160  and  _161
REMARK   66  A    between atoms: _163  and  _165
REMARK   67  A    between atoms: _165  and  _166
REMARK   68  A    between atoms: _165  and  _168
REMARK   69  A    between atoms: _168  and  _169
REMARK   70  A    between atoms: _169  and  _170
REMARK   71  A    between atoms: _170  and  _171
REMARK   72  A    between atoms: _171  and  _172
REMARK   73  A    between atoms: _176  and  _178
REMARK   74  A    between atoms: _178  and  _179
REMARK   75  A    between atoms: _178  and  _181
REMARK   76  A    between atoms: _181  and  _182
REMARK   77  A    between atoms: _184  and  _186
REMARK   78  A    between atoms: _186  and  _187
REMARK   79  A    between atoms: _186  and  _189
REMARK   80  A    between atoms: _189  and  _190
REMARK   81  A    between atoms: _193  and  _195
REMARK   82  A    between atoms: _195  and  _196
REMARK   83  A    between atoms: _195  and  _198
REMARK   84  A    between atoms: _198  and  _199
REMARK   85  A    between atoms: _202  and  _204
REMARK   86  A    between atoms: _204  and  _205
REMARK   87  A    between atoms: _204  and  _207
REMARK   88  A    between atoms: _207  and  _208
REMARK   89  A    between atoms: _211  and  _213
REMARK   90  A    between atoms: _213  and  _214
REMARK   91  A    between atoms: _213  and  _216
REMARK   92  A    between atoms: _216  and  _217
REMARK   93  A    between atoms: _217  and  _218
REMARK   94  A    between atoms: _218  and  _219
REMARK   95  A    between atoms: _219  and  _220
REMARK   96  A    between atoms: _224  and  _226
REMARK   97  A    between atoms: _226  and  _227
REMARK   98  A    between atoms: _226  and  _229
REMARK   99  A    between atoms: _229  and  _230
REMARK  100  A    between atoms: _235  and  _236
REMARK  101  A    between atoms: _238  and  _240
REMARK  102  A    between atoms: _240  and  _241
REMARK  103  A    between atoms: _240  and  _243
REMARK  104  A    between atoms: _243  and  _244
REMARK  105  A    between atoms: _244  and  _245
REMARK  106  A    between atoms: _248  and  _250
REMARK  107  A    between atoms: _250  and  _251
REMARK  108  A    between atoms: _250  and  _253
REMARK  109  A    between atoms: _253  and  _254
REMARK  110  A    between atoms: _257  and  _259
REMARK  111  A    between atoms: _259  and  _260
REMARK  112  A    between atoms: _263  and  _265
REMARK  113  A    between atoms: _265  and  _266
REMARK  114  A    between atoms: _265  and  _268
REMARK  115  A    between atoms: _268  and  _269
REMARK  116  A    between atoms: _269  and  _270
REMARK  117  A    between atoms: _272  and  _274
REMARK  118  A    between atoms: _274  and  _275
REMARK  119  A    between atoms: _274  and  _277
REMARK  120  A    between atoms: _277  and  _278
REMARK  121  A    between atoms: _278  and  _279
REMARK  122  A    between atoms: _279  and  _280
REMARK  123  A    between atoms: _280  and  _281
REMARK  124  A    between atoms: _285  and  _287
REMARK  125  A    between atoms: _287  and  _288
REMARK                            x       y       z     vdW  Elec       q    Type
REMARK                         _______ _______ _______ _____ _____    ______ ____
ROOT
ATOM      1  O   HOH     1     -19.565  14.447 -16.952  0.00  0.00    +0.000 OA
ENDROOT
TORSDOF 0
REMARK  Name = ../refined-set-2016/2pmk/2pmk_pocket.pdb
REMARK  125 active torsions:
REMARK  status: ('A' for Active; 'I' for Inactive)
REMARK    1  A    between atoms: _1  and  _3
REMARK    2  A    between atoms: _3  and  _4
REMARK    3  A    between atoms: _3  and  _6
REMARK    4  A    between atoms: _6  and  _7
REMARK    5  A    between atoms: _13  and  _15
REMARK    6  A    between atoms: _15  and  _16
REMARK    7  A    between atoms: _15  and  _18
REMARK    8  A    between atoms: _18  and  _19
REMARK    9  A    between atoms: _19  and  _20
REMARK   10  A    between atoms: _20  and  _21
REMARK   11  A    between atoms: _30  and  _32
REMARK   12  A    between atoms: _32  and  _33
REMARK   13  A    between atoms: _32  and  _35
REMARK   14  A    between atoms: _35  and  _36
REMARK   15  A    between atoms: _41  and  _42
REMARK   16  A    between atoms: _44  and  _46
REMARK   17  A    between atoms: _46  and  _47
REMARK   18  A    between atoms: _46  and  _49
REMARK   19  A    between atoms: _49  and  _50
REMARK   20  A    between atoms: _50  and  _51
REMARK   21  A    between atoms: _51  and  _52
REMARK   22  A    between atoms: _52  and  _53
REMARK   23  A    between atoms: _57  and  _59
REMARK   24  A    between atoms: _59  and  _60
REMARK   25  A    between atoms: _59  and  _62
REMARK   26  A    between atoms: _62  and  _63
REMARK   27  A    between atoms: _66  and  _67
REMARK   28  A    between atoms: _72  and  _74
REMARK   29  A    between atoms: _74  and  _75
REMARK   30  A    between atoms: _74  and  _77
REMARK   31  A    between atoms: _80  and  _82
REMARK   32  A    between atoms: _82  and  _83
REMARK   33  A    between atoms: _82  and  _85
REMARK   34  A    between atoms: _85  and  _86
REMARK   35  A    between atoms: _89  and  _91
REMARK   36  A    between atoms: _91  and  _92
REMARK   37  A    between atoms: _91  and  _94
REMARK   38  A    between atoms: _94  and  _95
REMARK   39  A    between atoms: _98  and  _100
REMARK   40  A    between atoms: _100  and  _101
REMARK   41  A    between atoms: _100  and  _103
REMARK   42  A    between atoms: _103  and  _104
REMARK   43  A    between atoms: _107  and  _109
REMARK   44  A    between atoms: _109  and  _110
REMARK   45  A    between atoms: _109  and  _112
REMARK   46  A    between atoms: _115  and  _117
REMARK   47  A    between atoms: _117  and  _118
REMARK   48  A    between atoms: _120  and  _122
REMARK   49  A    between atoms: _122  and  _123
REMARK   50  A    between atoms: _122  and  _125
REMARK   51  A    between atoms: _125  and  _126
REMARK   52  A    between atoms: _126  and  _127
REMARK   53  A    between atoms: _127  and  _128
REMARK   54  A    between atoms: _137  and  _139
REMARK   55  A    between atoms: _139  and  _140
REMARK   56  A    between atoms: _139  and  _142
REMARK   57  A    between atoms: _142  and  _143
REMARK   58  A    between atoms: _145  and  _147
REMARK   59  A    between atoms: _147  and  _148
REMARK   60  A    between atoms: _150  and  _152
REMARK   61  A    between atoms: _152  and  _153
REMARK   62  A    between atoms: _152  and  _155
REMARK   63  A    between atoms: _155  and  _156
REMARK   64  A    between atoms: _158  and  _160
REMARK   65  A    between atoms: _160  and  _161
REMARK   66  A    between atoms: _163  and  _165
REMARK   67  A    between atoms: _165  and  _166
REMARK   68  A    between atoms: _165  and  _168
REMARK   69  A    between atoms: _168  and  _169
REMARK   70  A    between atoms: _169  and  _170
REMARK   71  A    between atoms: _170  and  _171
REMARK   72  A    between atoms: _171  and  _172
REMARK   73  A    between atoms: _176  and  _178
REMARK   74  A    between atoms: _178  and  _179
REMARK   75  A    between atoms: _178  and  _181
REMARK   76  A    between atoms: _181  and  _182
REMARK   77  A    between atoms: _184  and  _186
REMARK   78  A    between atoms: _186  and  _187
REMARK   79  A    between atoms: _186  and  _189
REMARK   80  A    between atoms: _189  and  _190
REMARK   81  A    between atoms: _193  and  _195
REMARK   82  A    between atoms: _195  and  _196
REMARK   83  A    between atoms: _195  and  _198
REMARK   84  A    between atoms: _198  and  _199
REMARK   85  A    between atoms: _202  and  _204
REMARK   86  A    between atoms: _204  and  _205
REMARK   87  A    between atoms: _204  and  _207
REMARK   88  A    between atoms: _207  and  _208
REMARK   89  A    between atoms: _211  and  _213
REMARK   90  A    between atoms: _213  and  _214
REMARK   91  A    between atoms: _213  and  _216
REMARK   92  A    between atoms: _216  and  _217
REMARK   93  A    between atoms: _217  and  _218
REMARK   94  A    between atoms: _218  and  _219
REMARK   95  A    between atoms: _219  and  _220
REMARK   96  A    between atoms: _224  and  _226
REMARK   97  A    between atoms: _226  and  _227
REMARK   98  A    between atoms: _226  and  _229
REMARK   99  A    between atoms: _229  and  _230
REMARK  100  A    between atoms: _235  and  _236
REMARK  101  A    between atoms: _238  and  _240
REMARK  102  A    between atoms: _240  and  _241
REMARK  103  A    between atoms: _240  and  _243
REMARK  104  A    between atoms: _243  and  _244
REMARK  105  A    between atoms: _244  and  _245
REMARK  106  A    between atoms: _248  and  _250
REMARK  107  A    between atoms: _250  and  _251
REMARK  108  A    between atoms: _250  and  _253
REMARK  109  A    between atoms: _253  and  _254
REMARK  110  A    between atoms: _257  and  _259
REMARK  111  A    between atoms: _259  and  _260
REMARK  112  A    between atoms: _263  and  _265
REMARK  113  A    between atoms: _265  and  _266
REMARK  114  A    between atoms: _265  and  _268
REMARK  115  A    between atoms: _268  and  _269
REMARK  116  A    between atoms: _269  and  _270
REMARK  117  A    between atoms: _272  and  _274
REMARK  118  A    between atoms: _274  and  _275
REMARK  119  A    between atoms: _274  and  _277
REMARK  120  A    between atoms: _277  and  _278
REMARK  121  A    between atoms: _278  and  _279
REMARK  122  A    between atoms: _279  and  _280
REMARK  123  A    between atoms: _280  and  _281
REMARK  124  A    between atoms: _285  and  _287
REMARK  125  A    between atoms: _287  and  _288
REMARK                            x       y       z     vdW  Elec       q    Type
REMARK                         _______ _______ _______ _____ _____    ______ ____
ROOT
ATOM      1  O   HOH     1     -21.491  10.961 -10.981  0.00  0.00    +0.000 OA
ENDROOT
TORSDOF 0
REMARK  Name = ../refined-set-2016/2pmk/2pmk_pocket.pdb
REMARK  125 active torsions:
REMARK  status: ('A' for Active; 'I' for Inactive)
REMARK    1  A    between atoms: _1  and  _3
REMARK    2  A    between atoms: _3  and  _4
REMARK    3  A    between atoms: _3  and  _6
REMARK    4  A    between atoms: _6  and  _7
REMARK    5  A    between atoms: _13  and  _15
REMARK    6  A    between atoms: _15  and  _16
REMARK    7  A    between atoms: _15  and  _18
REMARK    8  A    between atoms: _18  and  _19
REMARK    9  A    between atoms: _19  and  _20
REMARK   10  A    between atoms: _20  and  _21
REMARK   11  A    between atoms: _30  and  _32
REMARK   12  A    between atoms: _32  and  _33
REMARK   13  A    between atoms: _32  and  _35
REMARK   14  A    between atoms: _35  and  _36
REMARK   15  A    between atoms: _41  and  _42
REMARK   16  A    between atoms: _44  and  _46
REMARK   17  A    between atoms: _46  and  _47
REMARK   18  A    between atoms: _46  and  _49
REMARK   19  A    between atoms: _49  and  _50
REMARK   20  A    between atoms: _50  and  _51
REMARK   21  A    between atoms: _51  and  _52
REMARK   22  A    between atoms: _52  and  _53
REMARK   23  A    between atoms: _57  and  _59
REMARK   24  A    between atoms: _59  and  _60
REMARK   25  A    between atoms: _59  and  _62
REMARK   26  A    between atoms: _62  and  _63
REMARK   27  A    between atoms: _66  and  _67
REMARK   28  A    between atoms: _72  and  _74
REMARK   29  A    between atoms: _74  and  _75
REMARK   30  A    between atoms: _74  and  _77
REMARK   31  A    between atoms: _80  and  _82
REMARK   32  A    between atoms: _82  and  _83
REMARK   33  A    between atoms: _82  and  _85
REMARK   34  A    between atoms: _85  and  _86
REMARK   35  A    between atoms: _89  and  _91
REMARK   36  A    between atoms: _91  and  _92
REMARK   37  A    between atoms: _91  and  _94
REMARK   38  A    between atoms: _94  and  _95
REMARK   39  A    between atoms: _98  and  _100
REMARK   40  A    between atoms: _100  and  _101
REMARK   41  A    between atoms: _100  and  _103
REMARK   42  A    between atoms: _103  and  _104
REMARK   43  A    between atoms: _107  and  _109
REMARK   44  A    between atoms: _109  and  _110
REMARK   45  A    between atoms: _109  and  _112
REMARK   46  A    between atoms: _115  and  _117
REMARK   47  A    between atoms: _117  and  _118
REMARK   48  A    between atoms: _120  and  _122
REMARK   49  A    between atoms: _122  and  _123
REMARK   50  A    between atoms: _122  and  _125
REMARK   51  A    between atoms: _125  and  _126
REMARK   52  A    between atoms: _126  and  _127
REMARK   53  A    between atoms: _127  and  _128
REMARK   54  A    between atoms: _137  and  _139
REMARK   55  A    between atoms: _139  and  _140
REMARK   56  A    between atoms: _139  and  _142
REMARK   57  A    between atoms: _142  and  _143
REMARK   58  A    between atoms: _145  and  _147
REMARK   59  A    between atoms: _147  and  _148
REMARK   60  A    between atoms: _150  and  _152
REMARK   61  A    between atoms: _152  and  _153
REMARK   62  A    between atoms: _152  and  _155
REMARK   63  A    between atoms: _155  and  _156
REMARK   64  A    between atoms: _158  and  _160
REMARK   65  A    between atoms: _160  and  _161
REMARK   66  A    between atoms: _163  and  _165
REMARK   67  A    between atoms: _165  and  _166
REMARK   68  A    between atoms: _165  and  _168
REMARK   69  A    between atoms: _168  and  _169
REMARK   70  A    between atoms: _169  and  _170
REMARK   71  A    between atoms: _170  and  _171
REMARK   72  A    between atoms: _171  and  _172
REMARK   73  A    between atoms: _176  and  _178
REMARK   74  A    between atoms: _178  and  _179
REMARK   75  A    between atoms: _178  and  _181
REMARK   76  A    between atoms: _181  and  _182
REMARK   77  A    between atoms: _184  and  _186
REMARK   78  A    between atoms: _186  and  _187
REMARK   79  A    between atoms: _186  and  _189
REMARK   80  A    between atoms: _189  and  _190
REMARK   81  A    between atoms: _193  and  _195
REMARK   82  A    between atoms: _195  and  _196
REMARK   83  A    between atoms: _195  and  _198
REMARK   84  A    between atoms: _198  and  _199
REMARK   85  A    between atoms: _202  and  _204
REMARK   86  A    between atoms: _204  and  _205
REMARK   87  A    between atoms: _204  and  _207
REMARK   88  A    between atoms: _207  and  _208
REMARK   89  A    between atoms: _211  and  _213
REMARK   90  A    between atoms: _213  and  _214
REMARK   91  A    between atoms: _213  and  _216
REMARK   92  A    between atoms: _216  and  _217
REMARK   93  A    between atoms: _217  and  _218
REMARK   94  A    between atoms: _218  and  _219
REMARK   95  A    between atoms: _219  and  _220
REMARK   96  A    between atoms: _224  and  _226
REMARK   97  A    between atoms: _226  and  _227
REMARK   98  A    between atoms: _226  and  _229
REMARK   99  A    between atoms: _229  and  _230
REMARK  100  A    between atoms: _235  and  _236
REMARK  101  A    between atoms: _238  and  _240
REMARK  102  A    between atoms: _240  and  _241
REMARK  103  A    between atoms: _240  and  _243
REMARK  104  A    between atoms: _243  and  _244
REMARK  105  A    between atoms: _244  and  _245
REMARK  106  A    between atoms: _248  and  _250
REMARK  107  A    between atoms: _250  and  _251
REMARK  108  A    between atoms: _250  and  _253
REMARK  109  A    between atoms: _253  and  _254
REMARK  110  A    between atoms: _257  and  _259
REMARK  111  A    between atoms: _259  and  _260
REMARK  112  A    between atoms: _263  and  _265
REMARK  113  A    between atoms: _265  and  _266
REMARK  114  A    between atoms: _265  and  _268
REMARK  115  A    between atoms: _268  and  _269
REMARK  116  A    between atoms: _269  and  _270
REMARK  117  A    between atoms: _272  and  _274
REMARK  118  A    between atoms: _274  and  _275
REMARK  119  A    between atoms: _274  and  _277
REMARK  120  A    between atoms: _277  and  _278
REMARK  121  A    between atoms: _278  and  _279
REMARK  122  A    between atoms: _279  and  _280
REMARK  123  A    between atoms: _280  and  _281
REMARK  124  A    between atoms: _285  and  _287
REMARK  125  A    between atoms: _287  and  _288
REMARK                            x       y       z     vdW  Elec       q    Type
REMARK                         _______ _______ _______ _____ _____    ______ ____
ROOT
ATOM      1  O   HOH     1     -22.011   8.236  -9.974  0.00  0.00    +0.000 OA
ENDROOT
TORSDOF 0
REMARK  Name = ../refined-set-2016/2pmk/2pmk_pocket.pdb
REMARK  125 active torsions:
REMARK  status: ('A' for Active; 'I' for Inactive)
REMARK    1  A    between atoms: _1  and  _3
REMARK    2  A    between atoms: _3  and  _4
REMARK    3  A    between atoms: _3  and  _6
REMARK    4  A    between atoms: _6  and  _7
REMARK    5  A    between atoms: _13  and  _15
REMARK    6  A    between atoms: _15  and  _16
REMARK    7  A    between atoms: _15  and  _18
REMARK    8  A    between atoms: _18  and  _19
REMARK    9  A    between atoms: _19  and  _20
REMARK   10  A    between atoms: _20  and  _21
REMARK   11  A    between atoms: _30  and  _32
REMARK   12  A    between atoms: _32  and  _33
REMARK   13  A    between atoms: _32  and  _35
REMARK   14  A    between atoms: _35  and  _36
REMARK   15  A    between atoms: _41  and  _42
REMARK   16  A    between atoms: _44  and  _46
REMARK   17  A    between atoms: _46  and  _47
REMARK   18  A    between atoms: _46  and  _49
REMARK   19  A    between atoms: _49  and  _50
REMARK   20  A    between atoms: _50  and  _51
REMARK   21  A    between atoms: _51  and  _52
REMARK   22  A    between atoms: _52  and  _53
REMARK   23  A    between atoms: _57  and  _59
REMARK   24  A    between atoms: _59  and  _60
REMARK   25  A    between atoms: _59  and  _62
REMARK   26  A    between atoms: _62  and  _63
REMARK   27  A    between atoms: _66  and  _67
REMARK   28  A    between atoms: _72  and  _74
REMARK   29  A    between atoms: _74  and  _75
REMARK   30  A    between atoms: _74  and  _77
REMARK   31  A    between atoms: _80  and  _82
REMARK   32  A    between atoms: _82  and  _83
REMARK   33  A    between atoms: _82  and  _85
REMARK   34  A    between atoms: _85  and  _86
REMARK   35  A    between atoms: _89  and  _91
REMARK   36  A    between atoms: _91  and  _92
REMARK   37  A    between atoms: _91  and  _94
REMARK   38  A    between atoms: _94  and  _95
REMARK   39  A    between atoms: _98  and  _100
REMARK   40  A    between atoms: _100  and  _101
REMARK   41  A    between atoms: _100  and  _103
REMARK   42  A    between atoms: _103  and  _104
REMARK   43  A    between atoms: _107  and  _109
REMARK   44  A    between atoms: _109  and  _110
REMARK   45  A    between atoms: _109  and  _112
REMARK   46  A    between atoms: _115  and  _117
REMARK   47  A    between atoms: _117  and  _118
REMARK   48  A    between atoms: _120  and  _122
REMARK   49  A    between atoms: _122  and  _123
REMARK   50  A    between atoms: _122  and  _125
REMARK   51  A    between atoms: _125  and  _126
REMARK   52  A    between atoms: _126  and  _127
REMARK   53  A    between atoms: _127  and  _128
REMARK   54  A    between atoms: _137  and  _139
REMARK   55  A    between atoms: _139  and  _140
REMARK   56  A    between atoms: _139  and  _142
REMARK   57  A    between atoms: _142  and  _143
REMARK   58  A    between atoms: _145  and  _147
REMARK   59  A    between atoms: _147  and  _148
REMARK   60  A    between atoms: _150  and  _152
REMARK   61  A    between atoms: _152  and  _153
REMARK   62  A    between atoms: _152  and  _155
REMARK   63  A    between atoms: _155  and  _156
REMARK   64  A    between atoms: _158  and  _160
REMARK   65  A    between atoms: _160  and  _161
REMARK   66  A    between atoms: _163  and  _165
REMARK   67  A    between atoms: _165  and  _166
REMARK   68  A    between atoms: _165  and  _168
REMARK   69  A    between atoms: _168  and  _169
REMARK   70  A    between atoms: _169  and  _170
REMARK   71  A    between atoms: _170  and  _171
REMARK   72  A    between atoms: _171  and  _172
REMARK   73  A    between atoms: _176  and  _178
REMARK   74  A    between atoms: _178  and  _179
REMARK   75  A    between atoms: _178  and  _181
REMARK   76  A    between atoms: _181  and  _182
REMARK   77  A    between atoms: _184  and  _186
REMARK   78  A    between atoms: _186  and  _187
REMARK   79  A    between atoms: _186  and  _189
REMARK   80  A    between atoms: _189  and  _190
REMARK   81  A    between atoms: _193  and  _195
REMARK   82  A    between atoms: _195  and  _196
REMARK   83  A    between atoms: _195  and  _198
REMARK   84  A    between atoms: _198  and  _199
REMARK   85  A    between atoms: _202  and  _204
REMARK   86  A    between atoms: _204  and  _205
REMARK   87  A    between atoms: _204  and  _207
REMARK   88  A    between atoms: _207  and  _208
REMARK   89  A    between atoms: _211  and  _213
REMARK   90  A    between atoms: _213  and  _214
REMARK   91  A    between atoms: _213  and  _216
REMARK   92  A    between atoms: _216  and  _217
REMARK   93  A    between atoms: _217  and  _218
REMARK   94  A    between atoms: _218  and  _219
REMARK   95  A    between atoms: _219  and  _220
REMARK   96  A    between atoms: _224  and  _226
REMARK   97  A    between atoms: _226  and  _227
REMARK   98  A    between atoms: _226  and  _229
REMARK   99  A    between atoms: _229  and  _230
REMARK  100  A    between atoms: _235  and  _236
REMARK  101  A    between atoms: _238  and  _240
REMARK  102  A    between atoms: _240  and  _241
REMARK  103  A    between atoms: _240  and  _243
REMARK  104  A    between atoms: _243  and  _244
REMARK  105  A    between atoms: _244  and  _245
REMARK  106  A    between atoms: _248  and  _250
REMARK  107  A    between atoms: _250  and  _251
REMARK  108  A    between atoms: _250  and  _253
REMARK  109  A    between atoms: _253  and  _254
REMARK  110  A    between atoms: _257  and  _259
REMARK  111  A    between atoms: _259  and  _260
REMARK  112  A    between atoms: _263  and  _265
REMARK  113  A    between atoms: _265  and  _266
REMARK  114  A    between atoms: _265  and  _268
REMARK  115  A    between atoms: _268  and  _269
REMARK  116  A    between atoms: _269  and  _270
REMARK  117  A    between atoms: _272  and  _274
REMARK  118  A    between atoms: _274  and  _275
REMARK  119  A    between atoms: _274  and  _277
REMARK  120  A    between atoms: _277  and  _278
REMARK  121  A    between atoms: _278  and  _279
REMARK  122  A    between atoms: _279  and  _280
REMARK  123  A    between atoms: _280  and  _281
REMARK  124  A    between atoms: _285  and  _287
REMARK  125  A    between atoms: _287  and  _288
REMARK                            x       y       z     vdW  Elec       q    Type
REMARK                         _______ _______ _______ _____ _____    ______ ____
ROOT
ATOM      1  O   HOH     1     -24.099  18.104  -8.831  0.00  0.00    +0.000 OA
ENDROOT
TORSDOF 0
REMARK  Name = ../refined-set-2016/2pmk/2pmk_pocket.pdb
REMARK  125 active torsions:
REMARK  status: ('A' for Active; 'I' for Inactive)
REMARK    1  A    between atoms: _1  and  _3
REMARK    2  A    between atoms: _3  and  _4
REMARK    3  A    between atoms: _3  and  _6
REMARK    4  A    between atoms: _6  and  _7
REMARK    5  A    between atoms: _13  and  _15
REMARK    6  A    between atoms: _15  and  _16
REMARK    7  A    between atoms: _15  and  _18
REMARK    8  A    between atoms: _18  and  _19
REMARK    9  A    between atoms: _19  and  _20
REMARK   10  A    between atoms: _20  and  _21
REMARK   11  A    between atoms: _30  and  _32
REMARK   12  A    between atoms: _32  and  _33
REMARK   13  A    between atoms: _32  and  _35
REMARK   14  A    between atoms: _35  and  _36
REMARK   15  A    between atoms: _41  and  _42
REMARK   16  A    between atoms: _44  and  _46
REMARK   17  A    between atoms: _46  and  _47
REMARK   18  A    between atoms: _46  and  _49
REMARK   19  A    between atoms: _49  and  _50
REMARK   20  A    between atoms: _50  and  _51
REMARK   21  A    between atoms: _51  and  _52
REMARK   22  A    between atoms: _52  and  _53
REMARK   23  A    between atoms: _57  and  _59
REMARK   24  A    between atoms: _59  and  _60
REMARK   25  A    between atoms: _59  and  _62
REMARK   26  A    between atoms: _62  and  _63
REMARK   27  A    between atoms: _66  and  _67
REMARK   28  A    between atoms: _72  and  _74
REMARK   29  A    between atoms: _74  and  _75
REMARK   30  A    between atoms: _74  and  _77
REMARK   31  A    between atoms: _80  and  _82
REMARK   32  A    between atoms: _82  and  _83
REMARK   33  A    between atoms: _82  and  _85
REMARK   34  A    between atoms: _85  and  _86
REMARK   35  A    between atoms: _89  and  _91
REMARK   36  A    between atoms: _91  and  _92
REMARK   37  A    between atoms: _91  and  _94
REMARK   38  A    between atoms: _94  and  _95
REMARK   39  A    between atoms: _98  and  _100
REMARK   40  A    between atoms: _100  and  _101
REMARK   41  A    between atoms: _100  and  _103
REMARK   42  A    between atoms: _103  and  _104
REMARK   43  A    between atoms: _107  and  _109
REMARK   44  A    between atoms: _109  and  _110
REMARK   45  A    between atoms: _109  and  _112
REMARK   46  A    between atoms: _115  and  _117
REMARK   47  A    between atoms: _117  and  _118
REMARK   48  A    between atoms: _120  and  _122
REMARK   49  A    between atoms: _122  and  _123
REMARK   50  A    between atoms: _122  and  _125
REMARK   51  A    between atoms: _125  and  _126
REMARK   52  A    between atoms: _126  and  _127
REMARK   53  A    between atoms: _127  and  _128
REMARK   54  A    between atoms: _137  and  _139
REMARK   55  A    between atoms: _139  and  _140
REMARK   56  A    between atoms: _139  and  _142
REMARK   57  A    between atoms: _142  and  _143
REMARK   58  A    between atoms: _145  and  _147
REMARK   59  A    between atoms: _147  and  _148
REMARK   60  A    between atoms: _150  and  _152
REMARK   61  A    between atoms: _152  and  _153
REMARK   62  A    between atoms: _152  and  _155
REMARK   63  A    between atoms: _155  and  _156
REMARK   64  A    between atoms: _158  and  _160
REMARK   65  A    between atoms: _160  and  _161
REMARK   66  A    between atoms: _163  and  _165
REMARK   67  A    between atoms: _165  and  _166
REMARK   68  A    between atoms: _165  and  _168
REMARK   69  A    between atoms: _168  and  _169
REMARK   70  A    between atoms: _169  and  _170
REMARK   71  A    between atoms: _170  and  _171
REMARK   72  A    between atoms: _171  and  _172
REMARK   73  A    between atoms: _176  and  _178
REMARK   74  A    between atoms: _178  and  _179
REMARK   75  A    between atoms: _178  and  _181
REMARK   76  A    between atoms: _181  and  _182
REMARK   77  A    between atoms: _184  and  _186
REMARK   78  A    between atoms: _186  and  _187
REMARK   79  A    between atoms: _186  and  _189
REMARK   80  A    between atoms: _189  and  _190
REMARK   81  A    between atoms: _193  and  _195
REMARK   82  A    between atoms: _195  and  _196
REMARK   83  A    between atoms: _195  and  _198
REMARK   84  A    between atoms: _198  and  _199
REMARK   85  A    between atoms: _202  and  _204
REMARK   86  A    between atoms: _204  and  _205
REMARK   87  A    between atoms: _204  and  _207
REMARK   88  A    between atoms: _207  and  _208
REMARK   89  A    between atoms: _211  and  _213
REMARK   90  A    between atoms: _213  and  _214
REMARK   91  A    between atoms: _213  and  _216
REMARK   92  A    between atoms: _216  and  _217
REMARK   93  A    between atoms: _217  and  _218
REMARK   94  A    between atoms: _218  and  _219
REMARK   95  A    between atoms: _219  and  _220
REMARK   96  A    between atoms: _224  and  _226
REMARK   97  A    between atoms: _226  and  _227
REMARK   98  A    between atoms: _226  and  _229
REMARK   99  A    between atoms: _229  and  _230
REMARK  100  A    between atoms: _235  and  _236
REMARK  101  A    between atoms: _238  and  _240
REMARK  102  A    between atoms: _240  and  _241
REMARK  103  A    between atoms: _240  and  _243
REMARK  104  A    between atoms: _243  and  _244
REMARK  105  A    between atoms: _244  and  _245
REMARK  106  A    between atoms: _248  and  _250
REMARK  107  A    between atoms: _250  and  _251
REMARK  108  A    between atoms: _250  and  _253
REMARK  109  A    between atoms: _253  and  _254
REMARK  110  A    between atoms: _257  and  _259
REMARK  111  A    between atoms: _259  and  _260
REMARK  112  A    between atoms: _263  and  _265
REMARK  113  A    between atoms: _265  and  _266
REMARK  114  A    between atoms: _265  and  _268
REMARK  115  A    between atoms: _268  and  _269
REMARK  116  A    between atoms: _269  and  _270
REMARK  117  A    between atoms: _272  and  _274
REMARK  118  A    between atoms: _274  and  _275
REMARK  119  A    between atoms: _274  and  _277
REMARK  120  A    between atoms: _277  and  _278
REMARK  121  A    between atoms: _278  and  _279
REMARK  122  A    between atoms: _279  and  _280
REMARK  123  A    between atoms: _280  and  _281
REMARK  124  A    between atoms: _285  and  _287
REMARK  125  A    between atoms: _287  and  _288
REMARK                            x       y       z     vdW  Elec       q    Type
REMARK                         _______ _______ _______ _____ _____    ______ ____
ROOT
ATOM      1  O   HOH     1     -25.330  16.227  -2.740  0.00  0.00    +0.000 OA
ENDROOT
TORSDOF 0
REMARK  Name = ../refined-set-2016/2pmk/2pmk_pocket.pdb
REMARK  125 active torsions:
REMARK  status: ('A' for Active; 'I' for Inactive)
REMARK    1  A    between atoms: _1  and  _3
REMARK    2  A    between atoms: _3  and  _4
REMARK    3  A    between atoms: _3  and  _6
REMARK    4  A    between atoms: _6  and  _7
REMARK    5  A    between atoms: _13  and  _15
REMARK    6  A    between atoms: _15  and  _16
REMARK    7  A    between atoms: _15  and  _18
REMARK    8  A    between atoms: _18  and  _19
REMARK    9  A    between atoms: _19  and  _20
REMARK   10  A    between atoms: _20  and  _21
REMARK   11  A    between atoms: _30  and  _32
REMARK   12  A    between atoms: _32  and  _33
REMARK   13  A    between atoms: _32  and  _35
REMARK   14  A    between atoms: _35  and  _36
REMARK   15  A    between atoms: _41  and  _42
REMARK   16  A    between atoms: _44  and  _46
REMARK   17  A    between atoms: _46  and  _47
REMARK   18  A    between atoms: _46  and  _49
REMARK   19  A    between atoms: _49  and  _50
REMARK   20  A    between atoms: _50  and  _51
REMARK   21  A    between atoms: _51  and  _52
REMARK   22  A    between atoms: _52  and  _53
REMARK   23  A    between atoms: _57  and  _59
REMARK   24  A    between atoms: _59  and  _60
REMARK   25  A    between atoms: _59  and  _62
REMARK   26  A    between atoms: _62  and  _63
REMARK   27  A    between atoms: _66  and  _67
REMARK   28  A    between atoms: _72  and  _74
REMARK   29  A    between atoms: _74  and  _75
REMARK   30  A    between atoms: _74  and  _77
REMARK   31  A    between atoms: _80  and  _82
REMARK   32  A    between atoms: _82  and  _83
REMARK   33  A    between atoms: _82  and  _85
REMARK   34  A    between atoms: _85  and  _86
REMARK   35  A    between atoms: _89  and  _91
REMARK   36  A    between atoms: _91  and  _92
REMARK   37  A    between atoms: _91  and  _94
REMARK   38  A    between atoms: _94  and  _95
REMARK   39  A    between atoms: _98  and  _100
REMARK   40  A    between atoms: _100  and  _101
REMARK   41  A    between atoms: _100  and  _103
REMARK   42  A    between atoms: _103  and  _104
REMARK   43  A    between atoms: _107  and  _109
REMARK   44  A    between atoms: _109  and  _110
REMARK   45  A    between atoms: _109  and  _112
REMARK   46  A    between atoms: _115  and  _117
REMARK   47  A    between atoms: _117  and  _118
REMARK   48  A    between atoms: _120  and  _122
REMARK   49  A    between atoms: _122  and  _123
REMARK   50  A    between atoms: _122  and  _125
REMARK   51  A    between atoms: _125  and  _126
REMARK   52  A    between atoms: _126  and  _127
REMARK   53  A    between atoms: _127  and  _128
REMARK   54  A    between atoms: _137  and  _139
REMARK   55  A    between atoms: _139  and  _140
REMARK   56  A    between atoms: _139  and  _142
REMARK   57  A    between atoms: _142  and  _143
REMARK   58  A    between atoms: _145  and  _147
REMARK   59  A    between atoms: _147  and  _148
REMARK   60  A    between atoms: _150  and  _152
REMARK   61  A    between atoms: _152  and  _153
REMARK   62  A    between atoms: _152  and  _155
REMARK   63  A    between atoms: _155  and  _156
REMARK   64  A    between atoms: _158  and  _160
REMARK   65  A    between atoms: _160  and  _161
REMARK   66  A    between atoms: _163  and  _165
REMARK   67  A    between atoms: _165  and  _166
REMARK   68  A    between atoms: _165  and  _168
REMARK   69  A    between atoms: _168  and  _169
REMARK   70  A    between atoms: _169  and  _170
REMARK   71  A    between atoms: _170  and  _171
REMARK   72  A    between atoms: _171  and  _172
REMARK   73  A    between atoms: _176  and  _178
REMARK   74  A    between atoms: _178  and  _179
REMARK   75  A    between atoms: _178  and  _181
REMARK   76  A    between atoms: _181  and  _182
REMARK   77  A    between atoms: _184  and  _186
REMARK   78  A    between atoms: _186  and  _187
REMARK   79  A    between atoms: _186  and  _189
REMARK   80  A    between atoms: _189  and  _190
REMARK   81  A    between atoms: _193  and  _195
REMARK   82  A    between atoms: _195  and  _196
REMARK   83  A    between atoms: _195  and  _198
REMARK   84  A    between atoms: _198  and  _199
REMARK   85  A    between atoms: _202  and  _204
REMARK   86  A    between atoms: _204  and  _205
REMARK   87  A    between atoms: _204  and  _207
REMARK   88  A    between atoms: _207  and  _208
REMARK   89  A    between atoms: _211  and  _213
REMARK   90  A    between atoms: _213  and  _214
REMARK   91  A    between atoms: _213  and  _216
REMARK   92  A    between atoms: _216  and  _217
REMARK   93  A    between atoms: _217  and  _218
REMARK   94  A    between atoms: _218  and  _219
REMARK   95  A    between atoms: _219  and  _220
REMARK   96  A    between atoms: _224  and  _226
REMARK   97  A    between atoms: _226  and  _227
REMARK   98  A    between atoms: _226  and  _229
REMARK   99  A    between atoms: _229  and  _230
REMARK  100  A    between atoms: _235  and  _236
REMARK  101  A    between atoms: _238  and  _240
REMARK  102  A    between atoms: _240  and  _241
REMARK  103  A    between atoms: _240  and  _243
REMARK  104  A    between atoms: _243  and  _244
REMARK  105  A    between atoms: _244  and  _245
REMARK  106  A    between atoms: _248  and  _250
REMARK  107  A    between atoms: _250  and  _251
REMARK  108  A    between atoms: _250  and  _253
REMARK  109  A    between atoms: _253  and  _254
REMARK  110  A    between atoms: _257  and  _259
REMARK  111  A    between atoms: _259  and  _260
REMARK  112  A    between atoms: _263  and  _265
REMARK  113  A    between atoms: _265  and  _266
REMARK  114  A    between atoms: _265  and  _268
REMARK  115  A    between atoms: _268  and  _269
REMARK  116  A    between atoms: _269  and  _270
REMARK  117  A    between atoms: _272  and  _274
REMARK  118  A    between atoms: _274  and  _275
REMARK  119  A    between atoms: _274  and  _277
REMARK  120  A    between atoms: _277  and  _278
REMARK  121  A    between atoms: _278  and  _279
REMARK  122  A    between atoms: _279  and  _280
REMARK  123  A    between atoms: _280  and  _281
REMARK  124  A    between atoms: _285  and  _287
REMARK  125  A    between atoms: _287  and  _288
REMARK                            x       y       z     vdW  Elec       q    Type
REMARK                         _______ _______ _______ _____ _____    ______ ____
ROOT
ATOM      1  O   HOH     1     -22.035  18.271 -11.651  0.00  0.00    +0.000 OA
ENDROOT
TORSDOF 0
REMARK  Name = ../refined-set-2016/2pmk/2pmk_pocket.pdb
REMARK  125 active torsions:
REMARK  status: ('A' for Active; 'I' for Inactive)
REMARK    1  A    between atoms: _1  and  _3
REMARK    2  A    between atoms: _3  and  _4
REMARK    3  A    between atoms: _3  and  _6
REMARK    4  A    between atoms: _6  and  _7
REMARK    5  A    between atoms: _13  and  _15
REMARK    6  A    between atoms: _15  and  _16
REMARK    7  A    between atoms: _15  and  _18
REMARK    8  A    between atoms: _18  and  _19
REMARK    9  A    between atoms: _19  and  _20
REMARK   10  A    between atoms: _20  and  _21
REMARK   11  A    between atoms: _30  and  _32
REMARK   12  A    between atoms: _32  and  _33
REMARK   13  A    between atoms: _32  and  _35
REMARK   14  A    between atoms: _35  and  _36
REMARK   15  A    between atoms: _41  and  _42
REMARK   16  A    between atoms: _44  and  _46
REMARK   17  A    between atoms: _46  and  _47
REMARK   18  A    between atoms: _46  and  _49
REMARK   19  A    between atoms: _49  and  _50
REMARK   20  A    between atoms: _50  and  _51
REMARK   21  A    between atoms: _51  and  _52
REMARK   22  A    between atoms: _52  and  _53
REMARK   23  A    between atoms: _57  and  _59
REMARK   24  A    between atoms: _59  and  _60
REMARK   25  A    between atoms: _59  and  _62
REMARK   26  A    between atoms: _62  and  _63
REMARK   27  A    between atoms: _66  and  _67
REMARK   28  A    between atoms: _72  and  _74
REMARK   29  A    between atoms: _74  and  _75
REMARK   30  A    between atoms: _74  and  _77
REMARK   31  A    between atoms: _80  and  _82
REMARK   32  A    between atoms: _82  and  _83
REMARK   33  A    between atoms: _82  and  _85
REMARK   34  A    between atoms: _85  and  _86
REMARK   35  A    between atoms: _89  and  _91
REMARK   36  A    between atoms: _91  and  _92
REMARK   37  A    between atoms: _91  and  _94
REMARK   38  A    between atoms: _94  and  _95
REMARK   39  A    between atoms: _98  and  _100
REMARK   40  A    between atoms: _100  and  _101
REMARK   41  A    between atoms: _100  and  _103
REMARK   42  A    between atoms: _103  and  _104
REMARK   43  A    between atoms: _107  and  _109
REMARK   44  A    between atoms: _109  and  _110
REMARK   45  A    between atoms: _109  and  _112
REMARK   46  A    between atoms: _115  and  _117
REMARK   47  A    between atoms: _117  and  _118
REMARK   48  A    between atoms: _120  and  _122
REMARK   49  A    between atoms: _122  and  _123
REMARK   50  A    between atoms: _122  and  _125
REMARK   51  A    between atoms: _125  and  _126
REMARK   52  A    between atoms: _126  and  _127
REMARK   53  A    between atoms: _127  and  _128
REMARK   54  A    between atoms: _137  and  _139
REMARK   55  A    between atoms: _139  and  _140
REMARK   56  A    between atoms: _139  and  _142
REMARK   57  A    between atoms: _142  and  _143
REMARK   58  A    between atoms: _145  and  _147
REMARK   59  A    between atoms: _147  and  _148
REMARK   60  A    between atoms: _150  and  _152
REMARK   61  A    between atoms: _152  and  _153
REMARK   62  A    between atoms: _152  and  _155
REMARK   63  A    between atoms: _155  and  _156
REMARK   64  A    between atoms: _158  and  _160
REMARK   65  A    between atoms: _160  and  _161
REMARK   66  A    between atoms: _163  and  _165
REMARK   67  A    between atoms: _165  and  _166
REMARK   68  A    between atoms: _165  and  _168
REMARK   69  A    between atoms: _168  and  _169
REMARK   70  A    between atoms: _169  and  _170
REMARK   71  A    between atoms: _170  and  _171
REMARK   72  A    between atoms: _171  and  _172
REMARK   73  A    between atoms: _176  and  _178
REMARK   74  A    between atoms: _178  and  _179
REMARK   75  A    between atoms: _178  and  _181
REMARK   76  A    between atoms: _181  and  _182
REMARK   77  A    between atoms: _184  and  _186
REMARK   78  A    between atoms: _186  and  _187
REMARK   79  A    between atoms: _186  and  _189
REMARK   80  A    between atoms: _189  and  _190
REMARK   81  A    between atoms: _193  and  _195
REMARK   82  A    between atoms: _195  and  _196
REMARK   83  A    between atoms: _195  and  _198
REMARK   84  A    between atoms: _198  and  _199
REMARK   85  A    between atoms: _202  and  _204
REMARK   86  A    between atoms: _204  and  _205
REMARK   87  A    between atoms: _204  and  _207
REMARK   88  A    between atoms: _207  and  _208
REMARK   89  A    between atoms: _211  and  _213
REMARK   90  A    between atoms: _213  and  _214
REMARK   91  A    between atoms: _213  and  _216
REMARK   92  A    between atoms: _216  and  _217
REMARK   93  A    between atoms: _217  and  _218
REMARK   94  A    between atoms: _218  and  _219
REMARK   95  A    between atoms: _219  and  _220
REMARK   96  A    between atoms: _224  and  _226
REMARK   97  A    between atoms: _226  and  _227
REMARK   98  A    between atoms: _226  and  _229
REMARK   99  A    between atoms: _229  and  _230
REMARK  100  A    between atoms: _235  and  _236
REMARK  101  A    between atoms: _238  and  _240
REMARK  102  A    between atoms: _240  and  _241
REMARK  103  A    between atoms: _240  and  _243
REMARK  104  A    between atoms: _243  and  _244
REMARK  105  A    between atoms: _244  and  _245
REMARK  106  A    between atoms: _248  and  _250
REMARK  107  A    between atoms: _250  and  _251
REMARK  108  A    between atoms: _250  and  _253
REMARK  109  A    between atoms: _253  and  _254
REMARK  110  A    between atoms: _257  and  _259
REMARK  111  A    between atoms: _259  and  _260
REMARK  112  A    between atoms: _263  and  _265
REMARK  113  A    between atoms: _265  and  _266
REMARK  114  A    between atoms: _265  and  _268
REMARK  115  A    between atoms: _268  and  _269
REMARK  116  A    between atoms: _269  and  _270
REMARK  117  A    between atoms: _272  and  _274
REMARK  118  A    between atoms: _274  and  _275
REMARK  119  A    between atoms: _274  and  _277
REMARK  120  A    between atoms: _277  and  _278
REMARK  121  A    between atoms: _278  and  _279
REMARK  122  A    between atoms: _279  and  _280
REMARK  123  A    between atoms: _280  and  _281
REMARK  124  A    between atoms: _285  and  _287
REMARK  125  A    between atoms: _287  and  _288
REMARK                            x       y       z     vdW  Elec       q    Type
REMARK                         _______ _______ _______ _____ _____    ______ ____
ROOT
ATOM      1  O   HOH     1     -25.314  12.684 -18.295  0.00  0.00    +0.000 OA
ENDROOT
TORSDOF 0
REMARK  Name = ../refined-set-2016/2pmk/2pmk_pocket.pdb
REMARK  125 active torsions:
REMARK  status: ('A' for Active; 'I' for Inactive)
REMARK    1  A    between atoms: _1  and  _3
REMARK    2  A    between atoms: _3  and  _4
REMARK    3  A    between atoms: _3  and  _6
REMARK    4  A    between atoms: _6  and  _7
REMARK    5  A    between atoms: _13  and  _15
REMARK    6  A    between atoms: _15  and  _16
REMARK    7  A    between atoms: _15  and  _18
REMARK    8  A    between atoms: _18  and  _19
REMARK    9  A    between atoms: _19  and  _20
REMARK   10  A    between atoms: _20  and  _21
REMARK   11  A    between atoms: _30  and  _32
REMARK   12  A    between atoms: _32  and  _33
REMARK   13  A    between atoms: _32  and  _35
REMARK   14  A    between atoms: _35  and  _36
REMARK   15  A    between atoms: _41  and  _42
REMARK   16  A    between atoms: _44  and  _46
REMARK   17  A    between atoms: _46  and  _47
REMARK   18  A    between atoms: _46  and  _49
REMARK   19  A    between atoms: _49  and  _50
REMARK   20  A    between atoms: _50  and  _51
REMARK   21  A    between atoms: _51  and  _52
REMARK   22  A    between atoms: _52  and  _53
REMARK   23  A    between atoms: _57  and  _59
REMARK   24  A    between atoms: _59  and  _60
REMARK   25  A    between atoms: _59  and  _62
REMARK   26  A    between atoms: _62  and  _63
REMARK   27  A    between atoms: _66  and  _67
REMARK   28  A    between atoms: _72  and  _74
REMARK   29  A    between atoms: _74  and  _75
REMARK   30  A    between atoms: _74  and  _77
REMARK   31  A    between atoms: _80  and  _82
REMARK   32  A    between atoms: _82  and  _83
REMARK   33  A    between atoms: _82  and  _85
REMARK   34  A    between atoms: _85  and  _86
REMARK   35  A    between atoms: _89  and  _91
REMARK   36  A    between atoms: _91  and  _92
REMARK   37  A    between atoms: _91  and  _94
REMARK   38  A    between atoms: _94  and  _95
REMARK   39  A    between atoms: _98  and  _100
REMARK   40  A    between atoms: _100  and  _101
REMARK   41  A    between atoms: _100  and  _103
REMARK   42  A    between atoms: _103  and  _104
REMARK   43  A    between atoms: _107  and  _109
REMARK   44  A    between atoms: _109  and  _110
REMARK   45  A    between atoms: _109  and  _112
REMARK   46  A    between atoms: _115  and  _117
REMARK   47  A    between atoms: _117  and  _118
REMARK   48  A    between atoms: _120  and  _122
REMARK   49  A    between atoms: _122  and  _123
REMARK   50  A    between atoms: _122  and  _125
REMARK   51  A    between atoms: _125  and  _126
REMARK   52  A    between atoms: _126  and  _127
REMARK   53  A    between atoms: _127  and  _128
REMARK   54  A    between atoms: _137  and  _139
REMARK   55  A    between atoms: _139  and  _140
REMARK   56  A    between atoms: _139  and  _142
REMARK   57  A    between atoms: _142  and  _143
REMARK   58  A    between atoms: _145  and  _147
REMARK   59  A    between atoms: _147  and  _148
REMARK   60  A    between atoms: _150  and  _152
REMARK   61  A    between atoms: _152  and  _153
REMARK   62  A    between atoms: _152  and  _155
REMARK   63  A    between atoms: _155  and  _156
REMARK   64  A    between atoms: _158  and  _160
REMARK   65  A    between atoms: _160  and  _161
REMARK   66  A    between atoms: _163  and  _165
REMARK   67  A    between atoms: _165  and  _166
REMARK   68  A    between atoms: _165  and  _168
REMARK   69  A    between atoms: _168  and  _169
REMARK   70  A    between atoms: _169  and  _170
REMARK   71  A    between atoms: _170  and  _171
REMARK   72  A    between atoms: _171  and  _172
REMARK   73  A    between atoms: _176  and  _178
REMARK   74  A    between atoms: _178  and  _179
REMARK   75  A    between atoms: _178  and  _181
REMARK   76  A    between atoms: _181  and  _182
REMARK   77  A    between atoms: _184  and  _186
REMARK   78  A    between atoms: _186  and  _187
REMARK   79  A    between atoms: _186  and  _189
REMARK   80  A    between atoms: _189  and  _190
REMARK   81  A    between atoms: _193  and  _195
REMARK   82  A    between atoms: _195  and  _196
REMARK   83  A    between atoms: _195  and  _198
REMARK   84  A    between atoms: _198  and  _199
REMARK   85  A    between atoms: _202  and  _204
REMARK   86  A    between atoms: _204  and  _205
REMARK   87  A    between atoms: _204  and  _207
REMARK   88  A    between atoms: _207  and  _208
REMARK   89  A    between atoms: _211  and  _213
REMARK   90  A    between atoms: _213  and  _214
REMARK   91  A    between atoms: _213  and  _216
REMARK   92  A    between atoms: _216  and  _217
REMARK   93  A    between atoms: _217  and  _218
REMARK   94  A    between atoms: _218  and  _219
REMARK   95  A    between atoms: _219  and  _220
REMARK   96  A    between atoms: _224  and  _226
REMARK   97  A    between atoms: _226  and  _227
REMARK   98  A    between atoms: _226  and  _229
REMARK   99  A    between atoms: _229  and  _230
REMARK  100  A    between atoms: _235  and  _236
REMARK  101  A    between atoms: _238  and  _240
REMARK  102  A    between atoms: _240  and  _241
REMARK  103  A    between atoms: _240  and  _243
REMARK  104  A    between atoms: _243  and  _244
REMARK  105  A    between atoms: _244  and  _245
REMARK  106  A    between atoms: _248  and  _250
REMARK  107  A    between atoms: _250  and  _251
REMARK  108  A    between atoms: _250  and  _253
REMARK  109  A    between atoms: _253  and  _254
REMARK  110  A    between atoms: _257  and  _259
REMARK  111  A    between atoms: _259  and  _260
REMARK  112  A    between atoms: _263  and  _265
REMARK  113  A    between atoms: _265  and  _266
REMARK  114  A    between atoms: _265  and  _268
REMARK  115  A    between atoms: _268  and  _269
REMARK  116  A    between atoms: _269  and  _270
REMARK  117  A    between atoms: _272  and  _274
REMARK  118  A    between atoms: _274  and  _275
REMARK  119  A    between atoms: _274  and  _277
REMARK  120  A    between atoms: _277  and  _278
REMARK  121  A    between atoms: _278  and  _279
REMARK  122  A    between atoms: _279  and  _280
REMARK  123  A    between atoms: _280  and  _281
REMARK  124  A    between atoms: _285  and  _287
REMARK  125  A    between atoms: _287  and  _288
REMARK                            x       y       z     vdW  Elec       q    Type
REMARK                         _______ _______ _______ _____ _____    ______ ____
ROOT
ATOM      1  O   HOH     1     -33.309  27.405 -10.455  0.00  0.00    +0.000 OA
ENDROOT
TORSDOF 0
REMARK  Name = ../refined-set-2016/2pmk/2pmk_pocket.pdb
REMARK  125 active torsions:
REMARK  status: ('A' for Active; 'I' for Inactive)
REMARK    1  A    between atoms: _1  and  _3
REMARK    2  A    between atoms: _3  and  _4
REMARK    3  A    between atoms: _3  and  _6
REMARK    4  A    between atoms: _6  and  _7
REMARK    5  A    between atoms: _13  and  _15
REMARK    6  A    between atoms: _15  and  _16
REMARK    7  A    between atoms: _15  and  _18
REMARK    8  A    between atoms: _18  and  _19
REMARK    9  A    between atoms: _19  and  _20
REMARK   10  A    between atoms: _20  and  _21
REMARK   11  A    between atoms: _30  and  _32
REMARK   12  A    between atoms: _32  and  _33
REMARK   13  A    between atoms: _32  and  _35
REMARK   14  A    between atoms: _35  and  _36
REMARK   15  A    between atoms: _41  and  _42
REMARK   16  A    between atoms: _44  and  _46
REMARK   17  A    between atoms: _46  and  _47
REMARK   18  A    between atoms: _46  and  _49
REMARK   19  A    between atoms: _49  and  _50
REMARK   20  A    between atoms: _50  and  _51
REMARK   21  A    between atoms: _51  and  _52
REMARK   22  A    between atoms: _52  and  _53
REMARK   23  A    between atoms: _57  and  _59
REMARK   24  A    between atoms: _59  and  _60
REMARK   25  A    between atoms: _59  and  _62
REMARK   26  A    between atoms: _62  and  _63
REMARK   27  A    between atoms: _66  and  _67
REMARK   28  A    between atoms: _72  and  _74
REMARK   29  A    between atoms: _74  and  _75
REMARK   30  A    between atoms: _74  and  _77
REMARK   31  A    between atoms: _80  and  _82
REMARK   32  A    between atoms: _82  and  _83
REMARK   33  A    between atoms: _82  and  _85
REMARK   34  A    between atoms: _85  and  _86
REMARK   35  A    between atoms: _89  and  _91
REMARK   36  A    between atoms: _91  and  _92
REMARK   37  A    between atoms: _91  and  _94
REMARK   38  A    between atoms: _94  and  _95
REMARK   39  A    between atoms: _98  and  _100
REMARK   40  A    between atoms: _100  and  _101
REMARK   41  A    between atoms: _100  and  _103
REMARK   42  A    between atoms: _103  and  _104
REMARK   43  A    between atoms: _107  and  _109
REMARK   44  A    between atoms: _109  and  _110
REMARK   45  A    between atoms: _109  and  _112
REMARK   46  A    between atoms: _115  and  _117
REMARK   47  A    between atoms: _117  and  _118
REMARK   48  A    between atoms: _120  and  _122
REMARK   49  A    between atoms: _122  and  _123
REMARK   50  A    between atoms: _122  and  _125
REMARK   51  A    between atoms: _125  and  _126
REMARK   52  A    between atoms: _126  and  _127
REMARK   53  A    between atoms: _127  and  _128
REMARK   54  A    between atoms: _137  and  _139
REMARK   55  A    between atoms: _139  and  _140
REMARK   56  A    between atoms: _139  and  _142
REMARK   57  A    between atoms: _142  and  _143
REMARK   58  A    between atoms: _145  and  _147
REMARK   59  A    between atoms: _147  and  _148
REMARK   60  A    between atoms: _150  and  _152
REMARK   61  A    between atoms: _152  and  _153
REMARK   62  A    between atoms: _152  and  _155
REMARK   63  A    between atoms: _155  and  _156
REMARK   64  A    between atoms: _158  and  _160
REMARK   65  A    between atoms: _160  and  _161
REMARK   66  A    between atoms: _163  and  _165
REMARK   67  A    between atoms: _165  and  _166
REMARK   68  A    between atoms: _165  and  _168
REMARK   69  A    between atoms: _168  and  _169
REMARK   70  A    between atoms: _169  and  _170
REMARK   71  A    between atoms: _170  and  _171
REMARK   72  A    between atoms: _171  and  _172
REMARK   73  A    between atoms: _176  and  _178
REMARK   74  A    between atoms: _178  and  _179
REMARK   75  A    between atoms: _178  and  _181
REMARK   76  A    between atoms: _181  and  _182
REMARK   77  A    between atoms: _184  and  _186
REMARK   78  A    between atoms: _186  and  _187
REMARK   79  A    between atoms: _186  and  _189
REMARK   80  A    between atoms: _189  and  _190
REMARK   81  A    between atoms: _193  and  _195
REMARK   82  A    between atoms: _195  and  _196
REMARK   83  A    between atoms: _195  and  _198
REMARK   84  A    between atoms: _198  and  _199
REMARK   85  A    between atoms: _202  and  _204
REMARK   86  A    between atoms: _204  and  _205
REMARK   87  A    between atoms: _204  and  _207
REMARK   88  A    between atoms: _207  and  _208
REMARK   89  A    between atoms: _211  and  _213
REMARK   90  A    between atoms: _213  and  _214
REMARK   91  A    between atoms: _213  and  _216
REMARK   92  A    between atoms: _216  and  _217
REMARK   93  A    between atoms: _217  and  _218
REMARK   94  A    between atoms: _218  and  _219
REMARK   95  A    between atoms: _219  and  _220
REMARK   96  A    between atoms: _224  and  _226
REMARK   97  A    between atoms: _226  and  _227
REMARK   98  A    between atoms: _226  and  _229
REMARK   99  A    between atoms: _229  and  _230
REMARK  100  A    between atoms: _235  and  _236
REMARK  101  A    between atoms: _238  and  _240
REMARK  102  A    between atoms: _240  and  _241
REMARK  103  A    between atoms: _240  and  _243
REMARK  104  A    between atoms: _243  and  _244
REMARK  105  A    between atoms: _244  and  _245
REMARK  106  A    between atoms: _248  and  _250
REMARK  107  A    between atoms: _250  and  _251
REMARK  108  A    between atoms: _250  and  _253
REMARK  109  A    between atoms: _253  and  _254
REMARK  110  A    between atoms: _257  and  _259
REMARK  111  A    between atoms: _259  and  _260
REMARK  112  A    between atoms: _263  and  _265
REMARK  113  A    between atoms: _265  and  _266
REMARK  114  A    between atoms: _265  and  _268
REMARK  115  A    between atoms: _268  and  _269
REMARK  116  A    between atoms: _269  and  _270
REMARK  117  A    between atoms: _272  and  _274
REMARK  118  A    between atoms: _274  and  _275
REMARK  119  A    between atoms: _274  and  _277
REMARK  120  A    between atoms: _277  and  _278
REMARK  121  A    between atoms: _278  and  _279
REMARK  122  A    between atoms: _279  and  _280
REMARK  123  A    between atoms: _280  and  _281
REMARK  124  A    between atoms: _285  and  _287
REMARK  125  A    between atoms: _287  and  _288
REMARK                            x       y       z     vdW  Elec       q    Type
REMARK                         _______ _______ _______ _____ _____    ______ ____
ROOT
ATOM      1  O   HOH     1     -29.710  26.057  -1.155  0.00  0.00    +0.000 OA
ENDROOT
TORSDOF 0
REMARK  Name = ../refined-set-2016/2pmk/2pmk_pocket.pdb
REMARK  125 active torsions:
REMARK  status: ('A' for Active; 'I' for Inactive)
REMARK    1  A    between atoms: _1  and  _3
REMARK    2  A    between atoms: _3  and  _4
REMARK    3  A    between atoms: _3  and  _6
REMARK    4  A    between atoms: _6  and  _7
REMARK    5  A    between atoms: _13  and  _15
REMARK    6  A    between atoms: _15  and  _16
REMARK    7  A    between atoms: _15  and  _18
REMARK    8  A    between atoms: _18  and  _19
REMARK    9  A    between atoms: _19  and  _20
REMARK   10  A    between atoms: _20  and  _21
REMARK   11  A    between atoms: _30  and  _32
REMARK   12  A    between atoms: _32  and  _33
REMARK   13  A    between atoms: _32  and  _35
REMARK   14  A    between atoms: _35  and  _36
REMARK   15  A    between atoms: _41  and  _42
REMARK   16  A    between atoms: _44  and  _46
REMARK   17  A    between atoms: _46  and  _47
REMARK   18  A    between atoms: _46  and  _49
REMARK   19  A    between atoms: _49  and  _50
REMARK   20  A    between atoms: _50  and  _51
REMARK   21  A    between atoms: _51  and  _52
REMARK   22  A    between atoms: _52  and  _53
REMARK   23  A    between atoms: _57  and  _59
REMARK   24  A    between atoms: _59  and  _60
REMARK   25  A    between atoms: _59  and  _62
REMARK   26  A    between atoms: _62  and  _63
REMARK   27  A    between atoms: _66  and  _67
REMARK   28  A    between atoms: _72  and  _74
REMARK   29  A    between atoms: _74  and  _75
REMARK   30  A    between atoms: _74  and  _77
REMARK   31  A    between atoms: _80  and  _82
REMARK   32  A    between atoms: _82  and  _83
REMARK   33  A    between atoms: _82  and  _85
REMARK   34  A    between atoms: _85  and  _86
REMARK   35  A    between atoms: _89  and  _91
REMARK   36  A    between atoms: _91  and  _92
REMARK   37  A    between atoms: _91  and  _94
REMARK   38  A    between atoms: _94  and  _95
REMARK   39  A    between atoms: _98  and  _100
REMARK   40  A    between atoms: _100  and  _101
REMARK   41  A    between atoms: _100  and  _103
REMARK   42  A    between atoms: _103  and  _104
REMARK   43  A    between atoms: _107  and  _109
REMARK   44  A    between atoms: _109  and  _110
REMARK   45  A    between atoms: _109  and  _112
REMARK   46  A    between atoms: _115  and  _117
REMARK   47  A    between atoms: _117  and  _118
REMARK   48  A    between atoms: _120  and  _122
REMARK   49  A    between atoms: _122  and  _123
REMARK   50  A    between atoms: _122  and  _125
REMARK   51  A    between atoms: _125  and  _126
REMARK   52  A    between atoms: _126  and  _127
REMARK   53  A    between atoms: _127  and  _128
REMARK   54  A    between atoms: _137  and  _139
REMARK   55  A    between atoms: _139  and  _140
REMARK   56  A    between atoms: _139  and  _142
REMARK   57  A    between atoms: _142  and  _143
REMARK   58  A    between atoms: _145  and  _147
REMARK   59  A    between atoms: _147  and  _148
REMARK   60  A    between atoms: _150  and  _152
REMARK   61  A    between atoms: _152  and  _153
REMARK   62  A    between atoms: _152  and  _155
REMARK   63  A    between atoms: _155  and  _156
REMARK   64  A    between atoms: _158  and  _160
REMARK   65  A    between atoms: _160  and  _161
REMARK   66  A    between atoms: _163  and  _165
REMARK   67  A    between atoms: _165  and  _166
REMARK   68  A    between atoms: _165  and  _168
REMARK   69  A    between atoms: _168  and  _169
REMARK   70  A    between atoms: _169  and  _170
REMARK   71  A    between atoms: _170  and  _171
REMARK   72  A    between atoms: _171  and  _172
REMARK   73  A    between atoms: _176  and  _178
REMARK   74  A    between atoms: _178  and  _179
REMARK   75  A    between atoms: _178  and  _181
REMARK   76  A    between atoms: _181  and  _182
REMARK   77  A    between atoms: _184  and  _186
REMARK   78  A    between atoms: _186  and  _187
REMARK   79  A    between atoms: _186  and  _189
REMARK   80  A    between atoms: _189  and  _190
REMARK   81  A    between atoms: _193  and  _195
REMARK   82  A    between atoms: _195  and  _196
REMARK   83  A    between atoms: _195  and  _198
REMARK   84  A    between atoms: _198  and  _199
REMARK   85  A    between atoms: _202  and  _204
REMARK   86  A    between atoms: _204  and  _205
REMARK   87  A    between atoms: _204  and  _207
REMARK   88  A    between atoms: _207  and  _208
REMARK   89  A    between atoms: _211  and  _213
REMARK   90  A    between atoms: _213  and  _214
REMARK   91  A    between atoms: _213  and  _216
REMARK   92  A    between atoms: _216  and  _217
REMARK   93  A    between atoms: _217  and  _218
REMARK   94  A    between atoms: _218  and  _219
REMARK   95  A    between atoms: _219  and  _220
REMARK   96  A    between atoms: _224  and  _226
REMARK   97  A    between atoms: _226  and  _227
REMARK   98  A    between atoms: _226  and  _229
REMARK   99  A    between atoms: _229  and  _230
REMARK  100  A    between atoms: _235  and  _236
REMARK  101  A    between atoms: _238  and  _240
REMARK  102  A    between atoms: _240  and  _241
REMARK  103  A    between atoms: _240  and  _243
REMARK  104  A    between atoms: _243  and  _244
REMARK  105  A    between atoms: _244  and  _245
REMARK  106  A    between atoms: _248  and  _250
REMARK  107  A    between atoms: _250  and  _251
REMARK  108  A    between atoms: _250  and  _253
REMARK  109  A    between atoms: _253  and  _254
REMARK  110  A    between atoms: _257  and  _259
REMARK  111  A    between atoms: _259  and  _260
REMARK  112  A    between atoms: _263  and  _265
REMARK  113  A    between atoms: _265  and  _266
REMARK  114  A    between atoms: _265  and  _268
REMARK  115  A    between atoms: _268  and  _269
REMARK  116  A    between atoms: _269  and  _270
REMARK  117  A    between atoms: _272  and  _274
REMARK  118  A    between atoms: _274  and  _275
REMARK  119  A    between atoms: _274  and  _277
REMARK  120  A    between atoms: _277  and  _278
REMARK  121  A    between atoms: _278  and  _279
REMARK  122  A    between atoms: _279  and  _280
REMARK  123  A    between atoms: _280  and  _281
REMARK  124  A    between atoms: _285  and  _287
REMARK  125  A    between atoms: _287  and  _288
REMARK                            x       y       z     vdW  Elec       q    Type
REMARK                         _______ _______ _______ _____ _____    ______ ____
ROOT
ATOM      1  O   HOH     1     -24.831  17.847 -12.605  0.00  0.00    +0.000 OA
ENDROOT
TORSDOF 0
REMARK  Name = ../refined-set-2016/2pmk/2pmk_pocket.pdb
REMARK  125 active torsions:
REMARK  status: ('A' for Active; 'I' for Inactive)
REMARK    1  A    between atoms: _1  and  _3
REMARK    2  A    between atoms: _3  and  _4
REMARK    3  A    between atoms: _3  and  _6
REMARK    4  A    between atoms: _6  and  _7
REMARK    5  A    between atoms: _13  and  _15
REMARK    6  A    between atoms: _15  and  _16
REMARK    7  A    between atoms: _15  and  _18
REMARK    8  A    between atoms: _18  and  _19
REMARK    9  A    between atoms: _19  and  _20
REMARK   10  A    between atoms: _20  and  _21
REMARK   11  A    between atoms: _30  and  _32
REMARK   12  A    between atoms: _32  and  _33
REMARK   13  A    between atoms: _32  and  _35
REMARK   14  A    between atoms: _35  and  _36
REMARK   15  A    between atoms: _41  and  _42
REMARK   16  A    between atoms: _44  and  _46
REMARK   17  A    between atoms: _46  and  _47
REMARK   18  A    between atoms: _46  and  _49
REMARK   19  A    between atoms: _49  and  _50
REMARK   20  A    between atoms: _50  and  _51
REMARK   21  A    between atoms: _51  and  _52
REMARK   22  A    between atoms: _52  and  _53
REMARK   23  A    between atoms: _57  and  _59
REMARK   24  A    between atoms: _59  and  _60
REMARK   25  A    between atoms: _59  and  _62
REMARK   26  A    between atoms: _62  and  _63
REMARK   27  A    between atoms: _66  and  _67
REMARK   28  A    between atoms: _72  and  _74
REMARK   29  A    between atoms: _74  and  _75
REMARK   30  A    between atoms: _74  and  _77
REMARK   31  A    between atoms: _80  and  _82
REMARK   32  A    between atoms: _82  and  _83
REMARK   33  A    between atoms: _82  and  _85
REMARK   34  A    between atoms: _85  and  _86
REMARK   35  A    between atoms: _89  and  _91
REMARK   36  A    between atoms: _91  and  _92
REMARK   37  A    between atoms: _91  and  _94
REMARK   38  A    between atoms: _94  and  _95
REMARK   39  A    between atoms: _98  and  _100
REMARK   40  A    between atoms: _100  and  _101
REMARK   41  A    between atoms: _100  and  _103
REMARK   42  A    between atoms: _103  and  _104
REMARK   43  A    between atoms: _107  and  _109
REMARK   44  A    between atoms: _109  and  _110
REMARK   45  A    between atoms: _109  and  _112
REMARK   46  A    between atoms: _115  and  _117
REMARK   47  A    between atoms: _117  and  _118
REMARK   48  A    between atoms: _120  and  _122
REMARK   49  A    between atoms: _122  and  _123
REMARK   50  A    between atoms: _122  and  _125
REMARK   51  A    between atoms: _125  and  _126
REMARK   52  A    between atoms: _126  and  _127
REMARK   53  A    between atoms: _127  and  _128
REMARK   54  A    between atoms: _137  and  _139
REMARK   55  A    between atoms: _139  and  _140
REMARK   56  A    between atoms: _139  and  _142
REMARK   57  A    between atoms: _142  and  _143
REMARK   58  A    between atoms: _145  and  _147
REMARK   59  A    between atoms: _147  and  _148
REMARK   60  A    between atoms: _150  and  _152
REMARK   61  A    between atoms: _152  and  _153
REMARK   62  A    between atoms: _152  and  _155
REMARK   63  A    between atoms: _155  and  _156
REMARK   64  A    between atoms: _158  and  _160
REMARK   65  A    between atoms: _160  and  _161
REMARK   66  A    between atoms: _163  and  _165
REMARK   67  A    between atoms: _165  and  _166
REMARK   68  A    between atoms: _165  and  _168
REMARK   69  A    between atoms: _168  and  _169
REMARK   70  A    between atoms: _169  and  _170
REMARK   71  A    between atoms: _170  and  _171
REMARK   72  A    between atoms: _171  and  _172
REMARK   73  A    between atoms: _176  and  _178
REMARK   74  A    between atoms: _178  and  _179
REMARK   75  A    between atoms: _178  and  _181
REMARK   76  A    between atoms: _181  and  _182
REMARK   77  A    between atoms: _184  and  _186
REMARK   78  A    between atoms: _186  and  _187
REMARK   79  A    between atoms: _186  and  _189
REMARK   80  A    between atoms: _189  and  _190
REMARK   81  A    between atoms: _193  and  _195
REMARK   82  A    between atoms: _195  and  _196
REMARK   83  A    between atoms: _195  and  _198
REMARK   84  A    between atoms: _198  and  _199
REMARK   85  A    between atoms: _202  and  _204
REMARK   86  A    between atoms: _204  and  _205
REMARK   87  A    between atoms: _204  and  _207
REMARK   88  A    between atoms: _207  and  _208
REMARK   89  A    between atoms: _211  and  _213
REMARK   90  A    between atoms: _213  and  _214
REMARK   91  A    between atoms: _213  and  _216
REMARK   92  A    between atoms: _216  and  _217
REMARK   93  A    between atoms: _217  and  _218
REMARK   94  A    between atoms: _218  and  _219
REMARK   95  A    between atoms: _219  and  _220
REMARK   96  A    between atoms: _224  and  _226
REMARK   97  A    between atoms: _226  and  _227
REMARK   98  A    between atoms: _226  and  _229
REMARK   99  A    between atoms: _229  and  _230
REMARK  100  A    between atoms: _235  and  _236
REMARK  101  A    between atoms: _238  and  _240
REMARK  102  A    between atoms: _240  and  _241
REMARK  103  A    between atoms: _240  and  _243
REMARK  104  A    between atoms: _243  and  _244
REMARK  105  A    between atoms: _244  and  _245
REMARK  106  A    between atoms: _248  and  _250
REMARK  107  A    between atoms: _250  and  _251
REMARK  108  A    between atoms: _250  and  _253
REMARK  109  A    between atoms: _253  and  _254
REMARK  110  A    between atoms: _257  and  _259
REMARK  111  A    between atoms: _259  and  _260
REMARK  112  A    between atoms: _263  and  _265
REMARK  113  A    between atoms: _265  and  _266
REMARK  114  A    between atoms: _265  and  _268
REMARK  115  A    between atoms: _268  and  _269
REMARK  116  A    between atoms: _269  and  _270
REMARK  117  A    between atoms: _272  and  _274
REMARK  118  A    between atoms: _274  and  _275
REMARK  119  A    between atoms: _274  and  _277
REMARK  120  A    between atoms: _277  and  _278
REMARK  121  A    between atoms: _278  and  _279
REMARK  122  A    between atoms: _279  and  _280
REMARK  123  A    between atoms: _280  and  _281
REMARK  124  A    between atoms: _285  and  _287
REMARK  125  A    between atoms: _287  and  _288
REMARK                            x       y       z     vdW  Elec       q    Type
REMARK                         _______ _______ _______ _____ _____    ______ ____
ROOT
ATOM      1  O   HOH     1     -39.727  16.992 -18.011  0.00  0.00    +0.000 OA
ENDROOT
TORSDOF 0
REMARK  Name = ../refined-set-2016/2pmk/2pmk_pocket.pdb
REMARK  125 active torsions:
REMARK  status: ('A' for Active; 'I' for Inactive)
REMARK    1  A    between atoms: _1  and  _3
REMARK    2  A    between atoms: _3  and  _4
REMARK    3  A    between atoms: _3  and  _6
REMARK    4  A    between atoms: _6  and  _7
REMARK    5  A    between atoms: _13  and  _15
REMARK    6  A    between atoms: _15  and  _16
REMARK    7  A    between atoms: _15  and  _18
REMARK    8  A    between atoms: _18  and  _19
REMARK    9  A    between atoms: _19  and  _20
REMARK   10  A    between atoms: _20  and  _21
REMARK   11  A    between atoms: _30  and  _32
REMARK   12  A    between atoms: _32  and  _33
REMARK   13  A    between atoms: _32  and  _35
REMARK   14  A    between atoms: _35  and  _36
REMARK   15  A    between atoms: _41  and  _42
REMARK   16  A    between atoms: _44  and  _46
REMARK   17  A    between atoms: _46  and  _47
REMARK   18  A    between atoms: _46  and  _49
REMARK   19  A    between atoms: _49  and  _50
REMARK   20  A    between atoms: _50  and  _51
REMARK   21  A    between atoms: _51  and  _52
REMARK   22  A    between atoms: _52  and  _53
REMARK   23  A    between atoms: _57  and  _59
REMARK   24  A    between atoms: _59  and  _60
REMARK   25  A    between atoms: _59  and  _62
REMARK   26  A    between atoms: _62  and  _63
REMARK   27  A    between atoms: _66  and  _67
REMARK   28  A    between atoms: _72  and  _74
REMARK   29  A    between atoms: _74  and  _75
REMARK   30  A    between atoms: _74  and  _77
REMARK   31  A    between atoms: _80  and  _82
REMARK   32  A    between atoms: _82  and  _83
REMARK   33  A    between atoms: _82  and  _85
REMARK   34  A    between atoms: _85  and  _86
REMARK   35  A    between atoms: _89  and  _91
REMARK   36  A    between atoms: _91  and  _92
REMARK   37  A    between atoms: _91  and  _94
REMARK   38  A    between atoms: _94  and  _95
REMARK   39  A    between atoms: _98  and  _100
REMARK   40  A    between atoms: _100  and  _101
REMARK   41  A    between atoms: _100  and  _103
REMARK   42  A    between atoms: _103  and  _104
REMARK   43  A    between atoms: _107  and  _109
REMARK   44  A    between atoms: _109  and  _110
REMARK   45  A    between atoms: _109  and  _112
REMARK   46  A    between atoms: _115  and  _117
REMARK   47  A    between atoms: _117  and  _118
REMARK   48  A    between atoms: _120  and  _122
REMARK   49  A    between atoms: _122  and  _123
REMARK   50  A    between atoms: _122  and  _125
REMARK   51  A    between atoms: _125  and  _126
REMARK   52  A    between atoms: _126  and  _127
REMARK   53  A    between atoms: _127  and  _128
REMARK   54  A    between atoms: _137  and  _139
REMARK   55  A    between atoms: _139  and  _140
REMARK   56  A    between atoms: _139  and  _142
REMARK   57  A    between atoms: _142  and  _143
REMARK   58  A    between atoms: _145  and  _147
REMARK   59  A    between atoms: _147  and  _148
REMARK   60  A    between atoms: _150  and  _152
REMARK   61  A    between atoms: _152  and  _153
REMARK   62  A    between atoms: _152  and  _155
REMARK   63  A    between atoms: _155  and  _156
REMARK   64  A    between atoms: _158  and  _160
REMARK   65  A    between atoms: _160  and  _161
REMARK   66  A    between atoms: _163  and  _165
REMARK   67  A    between atoms: _165  and  _166
REMARK   68  A    between atoms: _165  and  _168
REMARK   69  A    between atoms: _168  and  _169
REMARK   70  A    between atoms: _169  and  _170
REMARK   71  A    between atoms: _170  and  _171
REMARK   72  A    between atoms: _171  and  _172
REMARK   73  A    between atoms: _176  and  _178
REMARK   74  A    between atoms: _178  and  _179
REMARK   75  A    between atoms: _178  and  _181
REMARK   76  A    between atoms: _181  and  _182
REMARK   77  A    between atoms: _184  and  _186
REMARK   78  A    between atoms: _186  and  _187
REMARK   79  A    between atoms: _186  and  _189
REMARK   80  A    between atoms: _189  and  _190
REMARK   81  A    between atoms: _193  and  _195
REMARK   82  A    between atoms: _195  and  _196
REMARK   83  A    between atoms: _195  and  _198
REMARK   84  A    between atoms: _198  and  _199
REMARK   85  A    between atoms: _202  and  _204
REMARK   86  A    between atoms: _204  and  _205
REMARK   87  A    between atoms: _204  and  _207
REMARK   88  A    between atoms: _207  and  _208
REMARK   89  A    between atoms: _211  and  _213
REMARK   90  A    between atoms: _213  and  _214
REMARK   91  A    between atoms: _213  and  _216
REMARK   92  A    between atoms: _216  and  _217
REMARK   93  A    between atoms: _217  and  _218
REMARK   94  A    between atoms: _218  and  _219
REMARK   95  A    between atoms: _219  and  _220
REMARK   96  A    between atoms: _224  and  _226
REMARK   97  A    between atoms: _226  and  _227
REMARK   98  A    between atoms: _226  and  _229
REMARK   99  A    between atoms: _229  and  _230
REMARK  100  A    between atoms: _235  and  _236
REMARK  101  A    between atoms: _238  and  _240
REMARK  102  A    between atoms: _240  and  _241
REMARK  103  A    between atoms: _240  and  _243
REMARK  104  A    between atoms: _243  and  _244
REMARK  105  A    between atoms: _244  and  _245
REMARK  106  A    between atoms: _248  and  _250
REMARK  107  A    between atoms: _250  and  _251
REMARK  108  A    between atoms: _250  and  _253
REMARK  109  A    between atoms: _253  and  _254
REMARK  110  A    between atoms: _257  and  _259
REMARK  111  A    between atoms: _259  and  _260
REMARK  112  A    between atoms: _263  and  _265
REMARK  113  A    between atoms: _265  and  _266
REMARK  114  A    between atoms: _265  and  _268
REMARK  115  A    between atoms: _268  and  _269
REMARK  116  A    between atoms: _269  and  _270
REMARK  117  A    between atoms: _272  and  _274
REMARK  118  A    between atoms: _274  and  _275
REMARK  119  A    between atoms: _274  and  _277
REMARK  120  A    between atoms: _277  and  _278
REMARK  121  A    between atoms: _278  and  _279
REMARK  122  A    between atoms: _279  and  _280
REMARK  123  A    between atoms: _280  and  _281
REMARK  124  A    between atoms: _285  and  _287
REMARK  125  A    between atoms: _287  and  _288
REMARK                            x       y       z     vdW  Elec       q    Type
REMARK                         _______ _______ _______ _____ _____    ______ ____
ROOT
ATOM      1  O   HOH     1     -32.709  14.563 -13.606  0.00  0.00    +0.000 OA
ENDROOT
TORSDOF 0
REMARK  Name = ../refined-set-2016/2pmk/2pmk_pocket.pdb
REMARK  125 active torsions:
REMARK  status: ('A' for Active; 'I' for Inactive)
REMARK    1  A    between atoms: _1  and  _3
REMARK    2  A    between atoms: _3  and  _4
REMARK    3  A    between atoms: _3  and  _6
REMARK    4  A    between atoms: _6  and  _7
REMARK    5  A    between atoms: _13  and  _15
REMARK    6  A    between atoms: _15  and  _16
REMARK    7  A    between atoms: _15  and  _18
REMARK    8  A    between atoms: _18  and  _19
REMARK    9  A    between atoms: _19  and  _20
REMARK   10  A    between atoms: _20  and  _21
REMARK   11  A    between atoms: _30  and  _32
REMARK   12  A    between atoms: _32  and  _33
REMARK   13  A    between atoms: _32  and  _35
REMARK   14  A    between atoms: _35  and  _36
REMARK   15  A    between atoms: _41  and  _42
REMARK   16  A    between atoms: _44  and  _46
REMARK   17  A    between atoms: _46  and  _47
REMARK   18  A    between atoms: _46  and  _49
REMARK   19  A    between atoms: _49  and  _50
REMARK   20  A    between atoms: _50  and  _51
REMARK   21  A    between atoms: _51  and  _52
REMARK   22  A    between atoms: _52  and  _53
REMARK   23  A    between atoms: _57  and  _59
REMARK   24  A    between atoms: _59  and  _60
REMARK   25  A    between atoms: _59  and  _62
REMARK   26  A    between atoms: _62  and  _63
REMARK   27  A    between atoms: _66  and  _67
REMARK   28  A    between atoms: _72  and  _74
REMARK   29  A    between atoms: _74  and  _75
REMARK   30  A    between atoms: _74  and  _77
REMARK   31  A    between atoms: _80  and  _82
REMARK   32  A    between atoms: _82  and  _83
REMARK   33  A    between atoms: _82  and  _85
REMARK   34  A    between atoms: _85  and  _86
REMARK   35  A    between atoms: _89  and  _91
REMARK   36  A    between atoms: _91  and  _92
REMARK   37  A    between atoms: _91  and  _94
REMARK   38  A    between atoms: _94  and  _95
REMARK   39  A    between atoms: _98  and  _100
REMARK   40  A    between atoms: _100  and  _101
REMARK   41  A    between atoms: _100  and  _103
REMARK   42  A    between atoms: _103  and  _104
REMARK   43  A    between atoms: _107  and  _109
REMARK   44  A    between atoms: _109  and  _110
REMARK   45  A    between atoms: _109  and  _112
REMARK   46  A    between atoms: _115  and  _117
REMARK   47  A    between atoms: _117  and  _118
REMARK   48  A    between atoms: _120  and  _122
REMARK   49  A    between atoms: _122  and  _123
REMARK   50  A    between atoms: _122  and  _125
REMARK   51  A    between atoms: _125  and  _126
REMARK   52  A    between atoms: _126  and  _127
REMARK   53  A    between atoms: _127  and  _128
REMARK   54  A    between atoms: _137  and  _139
REMARK   55  A    between atoms: _139  and  _140
REMARK   56  A    between atoms: _139  and  _142
REMARK   57  A    between atoms: _142  and  _143
REMARK   58  A    between atoms: _145  and  _147
REMARK   59  A    between atoms: _147  and  _148
REMARK   60  A    between atoms: _150  and  _152
REMARK   61  A    between atoms: _152  and  _153
REMARK   62  A    between atoms: _152  and  _155
REMARK   63  A    between atoms: _155  and  _156
REMARK   64  A    between atoms: _158  and  _160
REMARK   65  A    between atoms: _160  and  _161
REMARK   66  A    between atoms: _163  and  _165
REMARK   67  A    between atoms: _165  and  _166
REMARK   68  A    between atoms: _165  and  _168
REMARK   69  A    between atoms: _168  and  _169
REMARK   70  A    between atoms: _169  and  _170
REMARK   71  A    between atoms: _170  and  _171
REMARK   72  A    between atoms: _171  and  _172
REMARK   73  A    between atoms: _176  and  _178
REMARK   74  A    between atoms: _178  and  _179
REMARK   75  A    between atoms: _178  and  _181
REMARK   76  A    between atoms: _181  and  _182
REMARK   77  A    between atoms: _184  and  _186
REMARK   78  A    between atoms: _186  and  _187
REMARK   79  A    between atoms: _186  and  _189
REMARK   80  A    between atoms: _189  and  _190
REMARK   81  A    between atoms: _193  and  _195
REMARK   82  A    between atoms: _195  and  _196
REMARK   83  A    between atoms: _195  and  _198
REMARK   84  A    between atoms: _198  and  _199
REMARK   85  A    between atoms: _202  and  _204
REMARK   86  A    between atoms: _204  and  _205
REMARK   87  A    between atoms: _204  and  _207
REMARK   88  A    between atoms: _207  and  _208
REMARK   89  A    between atoms: _211  and  _213
REMARK   90  A    between atoms: _213  and  _214
REMARK   91  A    between atoms: _213  and  _216
REMARK   92  A    between atoms: _216  and  _217
REMARK   93  A    between atoms: _217  and  _218
REMARK   94  A    between atoms: _218  and  _219
REMARK   95  A    between atoms: _219  and  _220
REMARK   96  A    between atoms: _224  and  _226
REMARK   97  A    between atoms: _226  and  _227
REMARK   98  A    between atoms: _226  and  _229
REMARK   99  A    between atoms: _229  and  _230
REMARK  100  A    between atoms: _235  and  _236
REMARK  101  A    between atoms: _238  and  _240
REMARK  102  A    between atoms: _240  and  _241
REMARK  103  A    between atoms: _240  and  _243
REMARK  104  A    between atoms: _243  and  _244
REMARK  105  A    between atoms: _244  and  _245
REMARK  106  A    between atoms: _248  and  _250
REMARK  107  A    between atoms: _250  and  _251
REMARK  108  A    between atoms: _250  and  _253
REMARK  109  A    between atoms: _253  and  _254
REMARK  110  A    between atoms: _257  and  _259
REMARK  111  A    between atoms: _259  and  _260
REMARK  112  A    between atoms: _263  and  _265
REMARK  113  A    between atoms: _265  and  _266
REMARK  114  A    between atoms: _265  and  _268
REMARK  115  A    between atoms: _268  and  _269
REMARK  116  A    between atoms: _269  and  _270
REMARK  117  A    between atoms: _272  and  _274
REMARK  118  A    between atoms: _274  and  _275
REMARK  119  A    between atoms: _274  and  _277
REMARK  120  A    between atoms: _277  and  _278
REMARK  121  A    between atoms: _278  and  _279
REMARK  122  A    between atoms: _279  and  _280
REMARK  123  A    between atoms: _280  and  _281
REMARK  124  A    between atoms: _285  and  _287
REMARK  125  A    between atoms: _287  and  _288
REMARK                            x       y       z     vdW  Elec       q    Type
REMARK                         _______ _______ _______ _____ _____    ______ ____
ROOT
ATOM      1  O   HOH     1     -29.978  16.065 -16.580  0.00  0.00    +0.000 OA
ENDROOT
TORSDOF 0
REMARK  Name = ../refined-set-2016/2pmk/2pmk_pocket.pdb
REMARK  125 active torsions:
REMARK  status: ('A' for Active; 'I' for Inactive)
REMARK    1  A    between atoms: _1  and  _3
REMARK    2  A    between atoms: _3  and  _4
REMARK    3  A    between atoms: _3  and  _6
REMARK    4  A    between atoms: _6  and  _7
REMARK    5  A    between atoms: _13  and  _15
REMARK    6  A    between atoms: _15  and  _16
REMARK    7  A    between atoms: _15  and  _18
REMARK    8  A    between atoms: _18  and  _19
REMARK    9  A    between atoms: _19  and  _20
REMARK   10  A    between atoms: _20  and  _21
REMARK   11  A    between atoms: _30  and  _32
REMARK   12  A    between atoms: _32  and  _33
REMARK   13  A    between atoms: _32  and  _35
REMARK   14  A    between atoms: _35  and  _36
REMARK   15  A    between atoms: _41  and  _42
REMARK   16  A    between atoms: _44  and  _46
REMARK   17  A    between atoms: _46  and  _47
REMARK   18  A    between atoms: _46  and  _49
REMARK   19  A    between atoms: _49  and  _50
REMARK   20  A    between atoms: _50  and  _51
REMARK   21  A    between atoms: _51  and  _52
REMARK   22  A    between atoms: _52  and  _53
REMARK   23  A    between atoms: _57  and  _59
REMARK   24  A    between atoms: _59  and  _60
REMARK   25  A    between atoms: _59  and  _62
REMARK   26  A    between atoms: _62  and  _63
REMARK   27  A    between atoms: _66  and  _67
REMARK   28  A    between atoms: _72  and  _74
REMARK   29  A    between atoms: _74  and  _75
REMARK   30  A    between atoms: _74  and  _77
REMARK   31  A    between atoms: _80  and  _82
REMARK   32  A    between atoms: _82  and  _83
REMARK   33  A    between atoms: _82  and  _85
REMARK   34  A    between atoms: _85  and  _86
REMARK   35  A    between atoms: _89  and  _91
REMARK   36  A    between atoms: _91  and  _92
REMARK   37  A    between atoms: _91  and  _94
REMARK   38  A    between atoms: _94  and  _95
REMARK   39  A    between atoms: _98  and  _100
REMARK   40  A    between atoms: _100  and  _101
REMARK   41  A    between atoms: _100  and  _103
REMARK   42  A    between atoms: _103  and  _104
REMARK   43  A    between atoms: _107  and  _109
REMARK   44  A    between atoms: _109  and  _110
REMARK   45  A    between atoms: _109  and  _112
REMARK   46  A    between atoms: _115  and  _117
REMARK   47  A    between atoms: _117  and  _118
REMARK   48  A    between atoms: _120  and  _122
REMARK   49  A    between atoms: _122  and  _123
REMARK   50  A    between atoms: _122  and  _125
REMARK   51  A    between atoms: _125  and  _126
REMARK   52  A    between atoms: _126  and  _127
REMARK   53  A    between atoms: _127  and  _128
REMARK   54  A    between atoms: _137  and  _139
REMARK   55  A    between atoms: _139  and  _140
REMARK   56  A    between atoms: _139  and  _142
REMARK   57  A    between atoms: _142  and  _143
REMARK   58  A    between atoms: _145  and  _147
REMARK   59  A    between atoms: _147  and  _148
REMARK   60  A    between atoms: _150  and  _152
REMARK   61  A    between atoms: _152  and  _153
REMARK   62  A    between atoms: _152  and  _155
REMARK   63  A    between atoms: _155  and  _156
REMARK   64  A    between atoms: _158  and  _160
REMARK   65  A    between atoms: _160  and  _161
REMARK   66  A    between atoms: _163  and  _165
REMARK   67  A    between atoms: _165  and  _166
REMARK   68  A    between atoms: _165  and  _168
REMARK   69  A    between atoms: _168  and  _169
REMARK   70  A    between atoms: _169  and  _170
REMARK   71  A    between atoms: _170  and  _171
REMARK   72  A    between atoms: _171  and  _172
REMARK   73  A    between atoms: _176  and  _178
REMARK   74  A    between atoms: _178  and  _179
REMARK   75  A    between atoms: _178  and  _181
REMARK   76  A    between atoms: _181  and  _182
REMARK   77  A    between atoms: _184  and  _186
REMARK   78  A    between atoms: _186  and  _187
REMARK   79  A    between atoms: _186  and  _189
REMARK   80  A    between atoms: _189  and  _190
REMARK   81  A    between atoms: _193  and  _195
REMARK   82  A    between atoms: _195  and  _196
REMARK   83  A    between atoms: _195  and  _198
REMARK   84  A    between atoms: _198  and  _199
REMARK   85  A    between atoms: _202  and  _204
REMARK   86  A    between atoms: _204  and  _205
REMARK   87  A    between atoms: _204  and  _207
REMARK   88  A    between atoms: _207  and  _208
REMARK   89  A    between atoms: _211  and  _213
REMARK   90  A    between atoms: _213  and  _214
REMARK   91  A    between atoms: _213  and  _216
REMARK   92  A    between atoms: _216  and  _217
REMARK   93  A    between atoms: _217  and  _218
REMARK   94  A    between atoms: _218  and  _219
REMARK   95  A    between atoms: _219  and  _220
REMARK   96  A    between atoms: _224  and  _226
REMARK   97  A    between atoms: _226  and  _227
REMARK   98  A    between atoms: _226  and  _229
REMARK   99  A    between atoms: _229  and  _230
REMARK  100  A    between atoms: _235  and  _236
REMARK  101  A    between atoms: _238  and  _240
REMARK  102  A    between atoms: _240  and  _241
REMARK  103  A    between atoms: _240  and  _243
REMARK  104  A    between atoms: _243  and  _244
REMARK  105  A    between atoms: _244  and  _245
REMARK  106  A    between atoms: _248  and  _250
REMARK  107  A    between atoms: _250  and  _251
REMARK  108  A    between atoms: _250  and  _253
REMARK  109  A    between atoms: _253  and  _254
REMARK  110  A    between atoms: _257  and  _259
REMARK  111  A    between atoms: _259  and  _260
REMARK  112  A    between atoms: _263  and  _265
REMARK  113  A    between atoms: _265  and  _266
REMARK  114  A    between atoms: _265  and  _268
REMARK  115  A    between atoms: _268  and  _269
REMARK  116  A    between atoms: _269  and  _270
REMARK  117  A    between atoms: _272  and  _274
REMARK  118  A    between atoms: _274  and  _275
REMARK  119  A    between atoms: _274  and  _277
REMARK  120  A    between atoms: _277  and  _278
REMARK  121  A    between atoms: _278  and  _279
REMARK  122  A    between atoms: _279  and  _280
REMARK  123  A    between atoms: _280  and  _281
REMARK  124  A    between atoms: _285  and  _287
REMARK  125  A    between atoms: _287  and  _288
REMARK                            x       y       z     vdW  Elec       q    Type
REMARK                         _______ _______ _______ _____ _____    ______ ____
ROOT
ATOM      1  O   HOH     1     -31.501  28.114  -4.856  0.00  0.00    +0.000 OA
ENDROOT
TORSDOF 0
REMARK  Name = ../refined-set-2016/2pmk/2pmk_pocket.pdb
REMARK  125 active torsions:
REMARK  status: ('A' for Active; 'I' for Inactive)
REMARK    1  A    between atoms: _1  and  _3
REMARK    2  A    between atoms: _3  and  _4
REMARK    3  A    between atoms: _3  and  _6
REMARK    4  A    between atoms: _6  and  _7
REMARK    5  A    between atoms: _13  and  _15
REMARK    6  A    between atoms: _15  and  _16
REMARK    7  A    between atoms: _15  and  _18
REMARK    8  A    between atoms: _18  and  _19
REMARK    9  A    between atoms: _19  and  _20
REMARK   10  A    between atoms: _20  and  _21
REMARK   11  A    between atoms: _30  and  _32
REMARK   12  A    between atoms: _32  and  _33
REMARK   13  A    between atoms: _32  and  _35
REMARK   14  A    between atoms: _35  and  _36
REMARK   15  A    between atoms: _41  and  _42
REMARK   16  A    between atoms: _44  and  _46
REMARK   17  A    between atoms: _46  and  _47
REMARK   18  A    between atoms: _46  and  _49
REMARK   19  A    between atoms: _49  and  _50
REMARK   20  A    between atoms: _50  and  _51
REMARK   21  A    between atoms: _51  and  _52
REMARK   22  A    between atoms: _52  and  _53
REMARK   23  A    between atoms: _57  and  _59
REMARK   24  A    between atoms: _59  and  _60
REMARK   25  A    between atoms: _59  and  _62
REMARK   26  A    between atoms: _62  and  _63
REMARK   27  A    between atoms: _66  and  _67
REMARK   28  A    between atoms: _72  and  _74
REMARK   29  A    between atoms: _74  and  _75
REMARK   30  A    between atoms: _74  and  _77
REMARK   31  A    between atoms: _80  and  _82
REMARK   32  A    between atoms: _82  and  _83
REMARK   33  A    between atoms: _82  and  _85
REMARK   34  A    between atoms: _85  and  _86
REMARK   35  A    between atoms: _89  and  _91
REMARK   36  A    between atoms: _91  and  _92
REMARK   37  A    between atoms: _91  and  _94
REMARK   38  A    between atoms: _94  and  _95
REMARK   39  A    between atoms: _98  and  _100
REMARK   40  A    between atoms: _100  and  _101
REMARK   41  A    between atoms: _100  and  _103
REMARK   42  A    between atoms: _103  and  _104
REMARK   43  A    between atoms: _107  and  _109
REMARK   44  A    between atoms: _109  and  _110
REMARK   45  A    between atoms: _109  and  _112
REMARK   46  A    between atoms: _115  and  _117
REMARK   47  A    between atoms: _117  and  _118
REMARK   48  A    between atoms: _120  and  _122
REMARK   49  A    between atoms: _122  and  _123
REMARK   50  A    between atoms: _122  and  _125
REMARK   51  A    between atoms: _125  and  _126
REMARK   52  A    between atoms: _126  and  _127
REMARK   53  A    between atoms: _127  and  _128
REMARK   54  A    between atoms: _137  and  _139
REMARK   55  A    between atoms: _139  and  _140
REMARK   56  A    between atoms: _139  and  _142
REMARK   57  A    between atoms: _142  and  _143
REMARK   58  A    between atoms: _145  and  _147
REMARK   59  A    between atoms: _147  and  _148
REMARK   60  A    between atoms: _150  and  _152
REMARK   61  A    between atoms: _152  and  _153
REMARK   62  A    between atoms: _152  and  _155
REMARK   63  A    between atoms: _155  and  _156
REMARK   64  A    between atoms: _158  and  _160
REMARK   65  A    between atoms: _160  and  _161
REMARK   66  A    between atoms: _163  and  _165
REMARK   67  A    between atoms: _165  and  _166
REMARK   68  A    between atoms: _165  and  _168
REMARK   69  A    between atoms: _168  and  _169
REMARK   70  A    between atoms: _169  and  _170
REMARK   71  A    between atoms: _170  and  _171
REMARK   72  A    between atoms: _171  and  _172
REMARK   73  A    between atoms: _176  and  _178
REMARK   74  A    between atoms: _178  and  _179
REMARK   75  A    between atoms: _178  and  _181
REMARK   76  A    between atoms: _181  and  _182
REMARK   77  A    between atoms: _184  and  _186
REMARK   78  A    between atoms: _186  and  _187
REMARK   79  A    between atoms: _186  and  _189
REMARK   80  A    between atoms: _189  and  _190
REMARK   81  A    between atoms: _193  and  _195
REMARK   82  A    between atoms: _195  and  _196
REMARK   83  A    between atoms: _195  and  _198
REMARK   84  A    between atoms: _198  and  _199
REMARK   85  A    between atoms: _202  and  _204
REMARK   86  A    between atoms: _204  and  _205
REMARK   87  A    between atoms: _204  and  _207
REMARK   88  A    between atoms: _207  and  _208
REMARK   89  A    between atoms: _211  and  _213
REMARK   90  A    between atoms: _213  and  _214
REMARK   91  A    between atoms: _213  and  _216
REMARK   92  A    between atoms: _216  and  _217
REMARK   93  A    between atoms: _217  and  _218
REMARK   94  A    between atoms: _218  and  _219
REMARK   95  A    between atoms: _219  and  _220
REMARK   96  A    between atoms: _224  and  _226
REMARK   97  A    between atoms: _226  and  _227
REMARK   98  A    between atoms: _226  and  _229
REMARK   99  A    between atoms: _229  and  _230
REMARK  100  A    between atoms: _235  and  _236
REMARK  101  A    between atoms: _238  and  _240
REMARK  102  A    between atoms: _240  and  _241
REMARK  103  A    between atoms: _240  and  _243
REMARK  104  A    between atoms: _243  and  _244
REMARK  105  A    between atoms: _244  and  _245
REMARK  106  A    between atoms: _248  and  _250
REMARK  107  A    between atoms: _250  and  _251
REMARK  108  A    between atoms: _250  and  _253
REMARK  109  A    between atoms: _253  and  _254
REMARK  110  A    between atoms: _257  and  _259
REMARK  111  A    between atoms: _259  and  _260
REMARK  112  A    between atoms: _263  and  _265
REMARK  113  A    between atoms: _265  and  _266
REMARK  114  A    between atoms: _265  and  _268
REMARK  115  A    between atoms: _268  and  _269
REMARK  116  A    between atoms: _269  and  _270
REMARK  117  A    between atoms: _272  and  _274
REMARK  118  A    between atoms: _274  and  _275
REMARK  119  A    between atoms: _274  and  _277
REMARK  120  A    between atoms: _277  and  _278
REMARK  121  A    between atoms: _278  and  _279
REMARK  122  A    between atoms: _279  and  _280
REMARK  123  A    between atoms: _280  and  _281
REMARK  124  A    between atoms: _285  and  _287
REMARK  125  A    between atoms: _287  and  _288
REMARK                            x       y       z     vdW  Elec       q    Type
REMARK                         _______ _______ _______ _____ _____    ______ ____
ROOT
ATOM      1  O   HOH     1     -20.432  18.063  -8.359  0.00  0.00    +0.000 OA
ENDROOT
TORSDOF 0
REMARK  Name = ../refined-set-2016/2pmk/2pmk_pocket.pdb
REMARK  125 active torsions:
REMARK  status: ('A' for Active; 'I' for Inactive)
REMARK    1  A    between atoms: _1  and  _3
REMARK    2  A    between atoms: _3  and  _4
REMARK    3  A    between atoms: _3  and  _6
REMARK    4  A    between atoms: _6  and  _7
REMARK    5  A    between atoms: _13  and  _15
REMARK    6  A    between atoms: _15  and  _16
REMARK    7  A    between atoms: _15  and  _18
REMARK    8  A    between atoms: _18  and  _19
REMARK    9  A    between atoms: _19  and  _20
REMARK   10  A    between atoms: _20  and  _21
REMARK   11  A    between atoms: _30  and  _32
REMARK   12  A    between atoms: _32  and  _33
REMARK   13  A    between atoms: _32  and  _35
REMARK   14  A    between atoms: _35  and  _36
REMARK   15  A    between atoms: _41  and  _42
REMARK   16  A    between atoms: _44  and  _46
REMARK   17  A    between atoms: _46  and  _47
REMARK   18  A    between atoms: _46  and  _49
REMARK   19  A    between atoms: _49  and  _50
REMARK   20  A    between atoms: _50  and  _51
REMARK   21  A    between atoms: _51  and  _52
REMARK   22  A    between atoms: _52  and  _53
REMARK   23  A    between atoms: _57  and  _59
REMARK   24  A    between atoms: _59  and  _60
REMARK   25  A    between atoms: _59  and  _62
REMARK   26  A    between atoms: _62  and  _63
REMARK   27  A    between atoms: _66  and  _67
REMARK   28  A    between atoms: _72  and  _74
REMARK   29  A    between atoms: _74  and  _75
REMARK   30  A    between atoms: _74  and  _77
REMARK   31  A    between atoms: _80  and  _82
REMARK   32  A    between atoms: _82  and  _83
REMARK   33  A    between atoms: _82  and  _85
REMARK   34  A    between atoms: _85  and  _86
REMARK   35  A    between atoms: _89  and  _91
REMARK   36  A    between atoms: _91  and  _92
REMARK   37  A    between atoms: _91  and  _94
REMARK   38  A    between atoms: _94  and  _95
REMARK   39  A    between atoms: _98  and  _100
REMARK   40  A    between atoms: _100  and  _101
REMARK   41  A    between atoms: _100  and  _103
REMARK   42  A    between atoms: _103  and  _104
REMARK   43  A    between atoms: _107  and  _109
REMARK   44  A    between atoms: _109  and  _110
REMARK   45  A    between atoms: _109  and  _112
REMARK   46  A    between atoms: _115  and  _117
REMARK   47  A    between atoms: _117  and  _118
REMARK   48  A    between atoms: _120  and  _122
REMARK   49  A    between atoms: _122  and  _123
REMARK   50  A    between atoms: _122  and  _125
REMARK   51  A    between atoms: _125  and  _126
REMARK   52  A    between atoms: _126  and  _127
REMARK   53  A    between atoms: _127  and  _128
REMARK   54  A    between atoms: _137  and  _139
REMARK   55  A    between atoms: _139  and  _140
REMARK   56  A    between atoms: _139  and  _142
REMARK   57  A    between atoms: _142  and  _143
REMARK   58  A    between atoms: _145  and  _147
REMARK   59  A    between atoms: _147  and  _148
REMARK   60  A    between atoms: _150  and  _152
REMARK   61  A    between atoms: _152  and  _153
REMARK   62  A    between atoms: _152  and  _155
REMARK   63  A    between atoms: _155  and  _156
REMARK   64  A    between atoms: _158  and  _160
REMARK   65  A    between atoms: _160  and  _161
REMARK   66  A    between atoms: _163  and  _165
REMARK   67  A    between atoms: _165  and  _166
REMARK   68  A    between atoms: _165  and  _168
REMARK   69  A    between atoms: _168  and  _169
REMARK   70  A    between atoms: _169  and  _170
REMARK   71  A    between atoms: _170  and  _171
REMARK   72  A    between atoms: _171  and  _172
REMARK   73  A    between atoms: _176  and  _178
REMARK   74  A    between atoms: _178  and  _179
REMARK   75  A    between atoms: _178  and  _181
REMARK   76  A    between atoms: _181  and  _182
REMARK   77  A    between atoms: _184  and  _186
REMARK   78  A    between atoms: _186  and  _187
REMARK   79  A    between atoms: _186  and  _189
REMARK   80  A    between atoms: _189  and  _190
REMARK   81  A    between atoms: _193  and  _195
REMARK   82  A    between atoms: _195  and  _196
REMARK   83  A    between atoms: _195  and  _198
REMARK   84  A    between atoms: _198  and  _199
REMARK   85  A    between atoms: _202  and  _204
REMARK   86  A    between atoms: _204  and  _205
REMARK   87  A    between atoms: _204  and  _207
REMARK   88  A    between atoms: _207  and  _208
REMARK   89  A    between atoms: _211  and  _213
REMARK   90  A    between atoms: _213  and  _214
REMARK   91  A    between atoms: _213  and  _216
REMARK   92  A    between atoms: _216  and  _217
REMARK   93  A    between atoms: _217  and  _218
REMARK   94  A    between atoms: _218  and  _219
REMARK   95  A    between atoms: _219  and  _220
REMARK   96  A    between atoms: _224  and  _226
REMARK   97  A    between atoms: _226  and  _227
REMARK   98  A    between atoms: _226  and  _229
REMARK   99  A    between atoms: _229  and  _230
REMARK  100  A    between atoms: _235  and  _236
REMARK  101  A    between atoms: _238  and  _240
REMARK  102  A    between atoms: _240  and  _241
REMARK  103  A    between atoms: _240  and  _243
REMARK  104  A    between atoms: _243  and  _244
REMARK  105  A    between atoms: _244  and  _245
REMARK  106  A    between atoms: _248  and  _250
REMARK  107  A    between atoms: _250  and  _251
REMARK  108  A    between atoms: _250  and  _253
REMARK  109  A    between atoms: _253  and  _254
REMARK  110  A    between atoms: _257  and  _259
REMARK  111  A    between atoms: _259  and  _260
REMARK  112  A    between atoms: _263  and  _265
REMARK  113  A    between atoms: _265  and  _266
REMARK  114  A    between atoms: _265  and  _268
REMARK  115  A    between atoms: _268  and  _269
REMARK  116  A    between atoms: _269  and  _270
REMARK  117  A    between atoms: _272  and  _274
REMARK  118  A    between atoms: _274  and  _275
REMARK  119  A    between atoms: _274  and  _277
REMARK  120  A    between atoms: _277  and  _278
REMARK  121  A    between atoms: _278  and  _279
REMARK  122  A    between atoms: _279  and  _280
REMARK  123  A    between atoms: _280  and  _281
REMARK  124  A    between atoms: _285  and  _287
REMARK  125  A    between atoms: _287  and  _288
REMARK                            x       y       z     vdW  Elec       q    Type
REMARK                         _______ _______ _______ _____ _____    ______ ____
ROOT
ATOM      1  O   HOH     1     -37.781  17.290 -20.521  0.00  0.00    +0.000 OA
ENDROOT
TORSDOF 0
REMARK  Name = ../refined-set-2016/2pmk/2pmk_pocket.pdb
REMARK  125 active torsions:
REMARK  status: ('A' for Active; 'I' for Inactive)
REMARK    1  A    between atoms: _1  and  _3
REMARK    2  A    between atoms: _3  and  _4
REMARK    3  A    between atoms: _3  and  _6
REMARK    4  A    between atoms: _6  and  _7
REMARK    5  A    between atoms: _13  and  _15
REMARK    6  A    between atoms: _15  and  _16
REMARK    7  A    between atoms: _15  and  _18
REMARK    8  A    between atoms: _18  and  _19
REMARK    9  A    between atoms: _19  and  _20
REMARK   10  A    between atoms: _20  and  _21
REMARK   11  A    between atoms: _30  and  _32
REMARK   12  A    between atoms: _32  and  _33
REMARK   13  A    between atoms: _32  and  _35
REMARK   14  A    between atoms: _35  and  _36
REMARK   15  A    between atoms: _41  and  _42
REMARK   16  A    between atoms: _44  and  _46
REMARK   17  A    between atoms: _46  and  _47
REMARK   18  A    between atoms: _46  and  _49
REMARK   19  A    between atoms: _49  and  _50
REMARK   20  A    between atoms: _50  and  _51
REMARK   21  A    between atoms: _51  and  _52
REMARK   22  A    between atoms: _52  and  _53
REMARK   23  A    between atoms: _57  and  _59
REMARK   24  A    between atoms: _59  and  _60
REMARK   25  A    between atoms: _59  and  _62
REMARK   26  A    between atoms: _62  and  _63
REMARK   27  A    between atoms: _66  and  _67
REMARK   28  A    between atoms: _72  and  _74
REMARK   29  A    between atoms: _74  and  _75
REMARK   30  A    between atoms: _74  and  _77
REMARK   31  A    between atoms: _80  and  _82
REMARK   32  A    between atoms: _82  and  _83
REMARK   33  A    between atoms: _82  and  _85
REMARK   34  A    between atoms: _85  and  _86
REMARK   35  A    between atoms: _89  and  _91
REMARK   36  A    between atoms: _91  and  _92
REMARK   37  A    between atoms: _91  and  _94
REMARK   38  A    between atoms: _94  and  _95
REMARK   39  A    between atoms: _98  and  _100
REMARK   40  A    between atoms: _100  and  _101
REMARK   41  A    between atoms: _100  and  _103
REMARK   42  A    between atoms: _103  and  _104
REMARK   43  A    between atoms: _107  and  _109
REMARK   44  A    between atoms: _109  and  _110
REMARK   45  A    between atoms: _109  and  _112
REMARK   46  A    between atoms: _115  and  _117
REMARK   47  A    between atoms: _117  and  _118
REMARK   48  A    between atoms: _120  and  _122
REMARK   49  A    between atoms: _122  and  _123
REMARK   50  A    between atoms: _122  and  _125
REMARK   51  A    between atoms: _125  and  _126
REMARK   52  A    between atoms: _126  and  _127
REMARK   53  A    between atoms: _127  and  _128
REMARK   54  A    between atoms: _137  and  _139
REMARK   55  A    between atoms: _139  and  _140
REMARK   56  A    between atoms: _139  and  _142
REMARK   57  A    between atoms: _142  and  _143
REMARK   58  A    between atoms: _145  and  _147
REMARK   59  A    between atoms: _147  and  _148
REMARK   60  A    between atoms: _150  and  _152
REMARK   61  A    between atoms: _152  and  _153
REMARK   62  A    between atoms: _152  and  _155
REMARK   63  A    between atoms: _155  and  _156
REMARK   64  A    between atoms: _158  and  _160
REMARK   65  A    between atoms: _160  and  _161
REMARK   66  A    between atoms: _163  and  _165
REMARK   67  A    between atoms: _165  and  _166
REMARK   68  A    between atoms: _165  and  _168
REMARK   69  A    between atoms: _168  and  _169
REMARK   70  A    between atoms: _169  and  _170
REMARK   71  A    between atoms: _170  and  _171
REMARK   72  A    between atoms: _171  and  _172
REMARK   73  A    between atoms: _176  and  _178
REMARK   74  A    between atoms: _178  and  _179
REMARK   75  A    between atoms: _178  and  _181
REMARK   76  A    between atoms: _181  and  _182
REMARK   77  A    between atoms: _184  and  _186
REMARK   78  A    between atoms: _186  and  _187
REMARK   79  A    between atoms: _186  and  _189
REMARK   80  A    between atoms: _189  and  _190
REMARK   81  A    between atoms: _193  and  _195
REMARK   82  A    between atoms: _195  and  _196
REMARK   83  A    between atoms: _195  and  _198
REMARK   84  A    between atoms: _198  and  _199
REMARK   85  A    between atoms: _202  and  _204
REMARK   86  A    between atoms: _204  and  _205
REMARK   87  A    between atoms: _204  and  _207
REMARK   88  A    between atoms: _207  and  _208
REMARK   89  A    between atoms: _211  and  _213
REMARK   90  A    between atoms: _213  and  _214
REMARK   91  A    between atoms: _213  and  _216
REMARK   92  A    between atoms: _216  and  _217
REMARK   93  A    between atoms: _217  and  _218
REMARK   94  A    between atoms: _218  and  _219
REMARK   95  A    between atoms: _219  and  _220
REMARK   96  A    between atoms: _224  and  _226
REMARK   97  A    between atoms: _226  and  _227
REMARK   98  A    between atoms: _226  and  _229
REMARK   99  A    between atoms: _229  and  _230
REMARK  100  A    between atoms: _235  and  _236
REMARK  101  A    between atoms: _238  and  _240
REMARK  102  A    between atoms: _240  and  _241
REMARK  103  A    between atoms: _240  and  _243
REMARK  104  A    between atoms: _243  and  _244
REMARK  105  A    between atoms: _244  and  _245
REMARK  106  A    between atoms: _248  and  _250
REMARK  107  A    between atoms: _250  and  _251
REMARK  108  A    between atoms: _250  and  _253
REMARK  109  A    between atoms: _253  and  _254
REMARK  110  A    between atoms: _257  and  _259
REMARK  111  A    between atoms: _259  and  _260
REMARK  112  A    between atoms: _263  and  _265
REMARK  113  A    between atoms: _265  and  _266
REMARK  114  A    between atoms: _265  and  _268
REMARK  115  A    between atoms: _268  and  _269
REMARK  116  A    between atoms: _269  and  _270
REMARK  117  A    between atoms: _272  and  _274
REMARK  118  A    between atoms: _274  and  _275
REMARK  119  A    between atoms: _274  and  _277
REMARK  120  A    between atoms: _277  and  _278
REMARK  121  A    between atoms: _278  and  _279
REMARK  122  A    between atoms: _279  and  _280
REMARK  123  A    between atoms: _280  and  _281
REMARK  124  A    between atoms: _285  and  _287
REMARK  125  A    between atoms: _287  and  _288
REMARK                            x       y       z     vdW  Elec       q    Type
REMARK                         _______ _______ _______ _____ _____    ______ ____
ROOT
ATOM      1  O   HOH     1     -32.878  26.693  -1.217  0.00  0.00    +0.000 OA
ENDROOT
TORSDOF 0
