REMARK  Name = ../refined-set-2016/3hcm/3hcm_pocket.pdb
REMARK  94 active torsions:
REMARK  status: ('A' for Active; 'I' for Inactive)
REMARK    1  A    between atoms: _1  and  _3
REMARK    2  A    between atoms: _3  and  _4
REMARK    3  A    between atoms: _3  and  _6
REMARK    4  A    between atoms: _6  and  _7
REMARK    5  A    between atoms: _10  and  _12
REMARK    6  A    between atoms: _12  and  _13
REMARK    7  A    between atoms: _12  and  _15
REMARK    8  A    between atoms: _15  and  _16
REMARK    9  A    between atoms: _19  and  _21
REMARK   10  A    between atoms: _21  and  _22
REMARK   11  A    between atoms: _21  and  _24
REMARK   12  A    between atoms: _24  and  _25
REMARK   13  A    between atoms: _31  and  _33
REMARK   14  A    between atoms: _33  and  _34
REMARK   15  A    between atoms: _33  and  _36
REMARK   16  A    between atoms: _36  and  _37
REMARK   17  A    between atoms: _40  and  _42
REMARK   18  A    between atoms: _42  and  _43
REMARK   19  A    between atoms: _42  and  _45
REMARK   20  A    between atoms: _45  and  _46
REMARK   21  A    between atoms: _46  and  _47
REMARK   22  A    between atoms: _50  and  _52
REMARK   23  A    between atoms: _52  and  _53
REMARK   24  A    between atoms: _52  and  _55
REMARK   25  A    between atoms: _55  and  _56
REMARK   26  A    between atoms: _56  and  _57
REMARK   27  A    between atoms: _57  and  _58
REMARK   28  A    between atoms: _58  and  _59
REMARK   29  A    between atoms: _63  and  _65
REMARK   30  A    between atoms: _65  and  _66
REMARK   31  A    between atoms: _65  and  _68
REMARK   32  A    between atoms: _71  and  _73
REMARK   33  A    between atoms: _73  and  _74
REMARK   34  A    between atoms: _73  and  _76
REMARK   35  A    between atoms: _76  and  _77
REMARK   36  A    between atoms: _80  and  _82
REMARK   37  A    between atoms: _82  and  _83
REMARK   38  A    between atoms: _82  and  _85
REMARK   39  A    between atoms: _85  and  _86
REMARK   40  A    between atoms: _89  and  _91
REMARK   41  A    between atoms: _91  and  _92
REMARK   42  A    between atoms: _91  and  _94
REMARK   43  A    between atoms: _94  and  _95
REMARK   44  A    between atoms: _100  and  _102
REMARK   45  A    between atoms: _102  and  _103
REMARK   46  A    between atoms: _102  and  _105
REMARK   47  A    between atoms: _105  and  _106
REMARK   48  A    between atoms: _106  and  _107
REMARK   49  A    between atoms: _110  and  _112
REMARK   50  A    between atoms: _112  and  _113
REMARK   51  A    between atoms: _112  and  _115
REMARK   52  A    between atoms: _115  and  _116
REMARK   53  A    between atoms: _122  and  _124
REMARK   54  A    between atoms: _124  and  _125
REMARK   55  A    between atoms: _124  and  _127
REMARK   56  A    between atoms: _127  and  _128
REMARK   57  A    between atoms: _128  and  _129
REMARK   58  A    between atoms: _131  and  _133
REMARK   59  A    between atoms: _133  and  _134
REMARK   60  A    between atoms: _137  and  _139
REMARK   61  A    between atoms: _139  and  _140
REMARK   62  A    between atoms: _139  and  _142
REMARK   63  A    between atoms: _142  and  _143
REMARK   64  A    between atoms: _149  and  _151
REMARK   65  A    between atoms: _151  and  _152
REMARK   66  A    between atoms: _151  and  _154
REMARK   67  A    between atoms: _157  and  _159
REMARK   68  A    between atoms: _159  and  _160
REMARK   69  A    between atoms: _163  and  _165
REMARK   70  A    between atoms: _165  and  _166
REMARK   71  A    between atoms: _165  and  _168
REMARK   72  A    between atoms: _168  and  _169
REMARK   73  A    between atoms: _169  and  _170
REMARK   74  A    between atoms: _172  and  _174
REMARK   75  A    between atoms: _174  and  _175
REMARK   76  A    between atoms: _174  and  _177
REMARK   77  A    between atoms: _180  and  _182
REMARK   78  A    between atoms: _182  and  _183
REMARK   79  A    between atoms: _182  and  _185
REMARK   80  A    between atoms: _185  and  _186
REMARK   81  A    between atoms: _189  and  _191
REMARK   82  A    between atoms: _191  and  _192
REMARK   83  A    between atoms: _191  and  _194
REMARK   84  A    between atoms: _194  and  _195
REMARK   85  A    between atoms: _198  and  _200
REMARK   86  A    between atoms: _200  and  _201
REMARK   87  A    between atoms: _204  and  _206
REMARK   88  A    between atoms: _206  and  _207
REMARK   89  A    between atoms: _206  and  _209
REMARK   90  A    between atoms: _211  and  _213
REMARK   91  A    between atoms: _213  and  _214
REMARK   92  A    between atoms: _213  and  _216
REMARK   93  A    between atoms: _216  and  _217
REMARK   94  A    between atoms: _217  and  _218
REMARK                            x       y       z     vdW  Elec       q    Type
REMARK                         _______ _______ _______ _____ _____    ______ ____
ROOT
ATOM      1  CA  ILE A   1       4.630   3.337  35.869  0.00  0.00    +0.133 C 
ENDROOT
BRANCH   1   2
ATOM      2  N   ILE A   1       4.766   1.845  36.185  0.00  0.00    -0.239 NA
ATOM      3  H   ILE A   1       4.038   1.392  36.773  0.00  0.00    +0.142 HD
ENDBRANCH   1   2
BRANCH   1   4
ATOM      4  C   ILE A   1       5.813   4.068  36.462  0.00  0.00    +0.224 C 
ATOM      5  O   ILE A   1       6.457   4.858  35.789  0.00  0.00    -0.287 OA
ENDBRANCH   1   4
BRANCH   1   6
ATOM      6  CB  ILE A   1       3.261   3.956  36.316  0.00  0.00    +0.023 C 
ATOM      7  CG2 ILE A   1       3.244   5.601  36.314  0.00  0.00    +0.002 C 
BRANCH   6   8
ATOM      8  CG1 ILE A   1       2.136   3.379  35.443  0.00  0.00    +0.002 C 
ATOM      9  CD1 ILE A   1       0.769   3.536  35.964  0.00  0.00    +0.000 C 
ENDBRANCH   6   8
ENDBRANCH   1   6
TORSDOF 4
REMARK  Name = ../refined-set-2016/3hcm/3hcm_pocket.pdb
REMARK  94 active torsions:
REMARK  status: ('A' for Active; 'I' for Inactive)
REMARK    1  A    between atoms: _1  and  _3
REMARK    2  A    between atoms: _3  and  _4
REMARK    3  A    between atoms: _3  and  _6
REMARK    4  A    between atoms: _6  and  _7
REMARK    5  A    between atoms: _10  and  _12
REMARK    6  A    between atoms: _12  and  _13
REMARK    7  A    between atoms: _12  and  _15
REMARK    8  A    between atoms: _15  and  _16
REMARK    9  A    between atoms: _19  and  _21
REMARK   10  A    between atoms: _21  and  _22
REMARK   11  A    between atoms: _21  and  _24
REMARK   12  A    between atoms: _24  and  _25
REMARK   13  A    between atoms: _31  and  _33
REMARK   14  A    between atoms: _33  and  _34
REMARK   15  A    between atoms: _33  and  _36
REMARK   16  A    between atoms: _36  and  _37
REMARK   17  A    between atoms: _40  and  _42
REMARK   18  A    between atoms: _42  and  _43
REMARK   19  A    between atoms: _42  and  _45
REMARK   20  A    between atoms: _45  and  _46
REMARK   21  A    between atoms: _46  and  _47
REMARK   22  A    between atoms: _50  and  _52
REMARK   23  A    between atoms: _52  and  _53
REMARK   24  A    between atoms: _52  and  _55
REMARK   25  A    between atoms: _55  and  _56
REMARK   26  A    between atoms: _56  and  _57
REMARK   27  A    between atoms: _57  and  _58
REMARK   28  A    between atoms: _58  and  _59
REMARK   29  A    between atoms: _63  and  _65
REMARK   30  A    between atoms: _65  and  _66
REMARK   31  A    between atoms: _65  and  _68
REMARK   32  A    between atoms: _71  and  _73
REMARK   33  A    between atoms: _73  and  _74
REMARK   34  A    between atoms: _73  and  _76
REMARK   35  A    between atoms: _76  and  _77
REMARK   36  A    between atoms: _80  and  _82
REMARK   37  A    between atoms: _82  and  _83
REMARK   38  A    between atoms: _82  and  _85
REMARK   39  A    between atoms: _85  and  _86
REMARK   40  A    between atoms: _89  and  _91
REMARK   41  A    between atoms: _91  and  _92
REMARK   42  A    between atoms: _91  and  _94
REMARK   43  A    between atoms: _94  and  _95
REMARK   44  A    between atoms: _100  and  _102
REMARK   45  A    between atoms: _102  and  _103
REMARK   46  A    between atoms: _102  and  _105
REMARK   47  A    between atoms: _105  and  _106
REMARK   48  A    between atoms: _106  and  _107
REMARK   49  A    between atoms: _110  and  _112
REMARK   50  A    between atoms: _112  and  _113
REMARK   51  A    between atoms: _112  and  _115
REMARK   52  A    between atoms: _115  and  _116
REMARK   53  A    between atoms: _122  and  _124
REMARK   54  A    between atoms: _124  and  _125
REMARK   55  A    between atoms: _124  and  _127
REMARK   56  A    between atoms: _127  and  _128
REMARK   57  A    between atoms: _128  and  _129
REMARK   58  A    between atoms: _131  and  _133
REMARK   59  A    between atoms: _133  and  _134
REMARK   60  A    between atoms: _137  and  _139
REMARK   61  A    between atoms: _139  and  _140
REMARK   62  A    between atoms: _139  and  _142
REMARK   63  A    between atoms: _142  and  _143
REMARK   64  A    between atoms: _149  and  _151
REMARK   65  A    between atoms: _151  and  _152
REMARK   66  A    between atoms: _151  and  _154
REMARK   67  A    between atoms: _157  and  _159
REMARK   68  A    between atoms: _159  and  _160
REMARK   69  A    between atoms: _163  and  _165
REMARK   70  A    between atoms: _165  and  _166
REMARK   71  A    between atoms: _165  and  _168
REMARK   72  A    between atoms: _168  and  _169
REMARK   73  A    between atoms: _169  and  _170
REMARK   74  A    between atoms: _172  and  _174
REMARK   75  A    between atoms: _174  and  _175
REMARK   76  A    between atoms: _174  and  _177
REMARK   77  A    between atoms: _180  and  _182
REMARK   78  A    between atoms: _182  and  _183
REMARK   79  A    between atoms: _182  and  _185
REMARK   80  A    between atoms: _185  and  _186
REMARK   81  A    between atoms: _189  and  _191
REMARK   82  A    between atoms: _191  and  _192
REMARK   83  A    between atoms: _191  and  _194
REMARK   84  A    between atoms: _194  and  _195
REMARK   85  A    between atoms: _198  and  _200
REMARK   86  A    between atoms: _200  and  _201
REMARK   87  A    between atoms: _204  and  _206
REMARK   88  A    between atoms: _206  and  _207
REMARK   89  A    between atoms: _206  and  _209
REMARK   90  A    between atoms: _211  and  _213
REMARK   91  A    between atoms: _213  and  _214
REMARK   92  A    between atoms: _213  and  _216
REMARK   93  A    between atoms: _216  and  _217
REMARK   94  A    between atoms: _217  and  _218
REMARK                            x       y       z     vdW  Elec       q    Type
REMARK                         _______ _______ _______ _____ _____    ______ ____
ROOT
ATOM      1  CA  LEU A   1       7.512   5.807  32.748  0.00  0.00    +0.133 C 
ENDROOT
BRANCH   1   2
ATOM      2  N   LEU A   1       8.165   4.653  33.392  0.00  0.00    -0.239 NA
ATOM      3  H   LEU A   1       8.012   4.503  34.410  0.00  0.00    +0.142 HD
ENDBRANCH   1   2
BRANCH   1   4
ATOM      4  C   LEU A   1       7.776   7.101  33.530  0.00  0.00    +0.224 C 
ATOM      5  O   LEU A   1       7.031   8.062  33.397  0.00  0.00    -0.287 OA
ENDBRANCH   1   4
BRANCH   1   6
ATOM      6  CB  LEU A   1       5.988   5.572  32.566  0.00  0.00    +0.025 C 
BRANCH   6   7
ATOM      7  CG  LEU A   1       5.594   4.421  31.621  0.00  0.00    +0.002 C 
ATOM      8  CD2 LEU A   1       4.083   4.162  31.678  0.00  0.00    +0.000 C 
ATOM      9  CD1 LEU A   1       6.097   4.708  30.175  0.00  0.00    +0.000 C 
ENDBRANCH   6   7
ENDBRANCH   1   6
TORSDOF 4
REMARK  Name = ../refined-set-2016/3hcm/3hcm_pocket.pdb
REMARK  94 active torsions:
REMARK  status: ('A' for Active; 'I' for Inactive)
REMARK    1  A    between atoms: _1  and  _3
REMARK    2  A    between atoms: _3  and  _4
REMARK    3  A    between atoms: _3  and  _6
REMARK    4  A    between atoms: _6  and  _7
REMARK    5  A    between atoms: _10  and  _12
REMARK    6  A    between atoms: _12  and  _13
REMARK    7  A    between atoms: _12  and  _15
REMARK    8  A    between atoms: _15  and  _16
REMARK    9  A    between atoms: _19  and  _21
REMARK   10  A    between atoms: _21  and  _22
REMARK   11  A    between atoms: _21  and  _24
REMARK   12  A    between atoms: _24  and  _25
REMARK   13  A    between atoms: _31  and  _33
REMARK   14  A    between atoms: _33  and  _34
REMARK   15  A    between atoms: _33  and  _36
REMARK   16  A    between atoms: _36  and  _37
REMARK   17  A    between atoms: _40  and  _42
REMARK   18  A    between atoms: _42  and  _43
REMARK   19  A    between atoms: _42  and  _45
REMARK   20  A    between atoms: _45  and  _46
REMARK   21  A    between atoms: _46  and  _47
REMARK   22  A    between atoms: _50  and  _52
REMARK   23  A    between atoms: _52  and  _53
REMARK   24  A    between atoms: _52  and  _55
REMARK   25  A    between atoms: _55  and  _56
REMARK   26  A    between atoms: _56  and  _57
REMARK   27  A    between atoms: _57  and  _58
REMARK   28  A    between atoms: _58  and  _59
REMARK   29  A    between atoms: _63  and  _65
REMARK   30  A    between atoms: _65  and  _66
REMARK   31  A    between atoms: _65  and  _68
REMARK   32  A    between atoms: _71  and  _73
REMARK   33  A    between atoms: _73  and  _74
REMARK   34  A    between atoms: _73  and  _76
REMARK   35  A    between atoms: _76  and  _77
REMARK   36  A    between atoms: _80  and  _82
REMARK   37  A    between atoms: _82  and  _83
REMARK   38  A    between atoms: _82  and  _85
REMARK   39  A    between atoms: _85  and  _86
REMARK   40  A    between atoms: _89  and  _91
REMARK   41  A    between atoms: _91  and  _92
REMARK   42  A    between atoms: _91  and  _94
REMARK   43  A    between atoms: _94  and  _95
REMARK   44  A    between atoms: _100  and  _102
REMARK   45  A    between atoms: _102  and  _103
REMARK   46  A    between atoms: _102  and  _105
REMARK   47  A    between atoms: _105  and  _106
REMARK   48  A    between atoms: _106  and  _107
REMARK   49  A    between atoms: _110  and  _112
REMARK   50  A    between atoms: _112  and  _113
REMARK   51  A    between atoms: _112  and  _115
REMARK   52  A    between atoms: _115  and  _116
REMARK   53  A    between atoms: _122  and  _124
REMARK   54  A    between atoms: _124  and  _125
REMARK   55  A    between atoms: _124  and  _127
REMARK   56  A    between atoms: _127  and  _128
REMARK   57  A    between atoms: _128  and  _129
REMARK   58  A    between atoms: _131  and  _133
REMARK   59  A    between atoms: _133  and  _134
REMARK   60  A    between atoms: _137  and  _139
REMARK   61  A    between atoms: _139  and  _140
REMARK   62  A    between atoms: _139  and  _142
REMARK   63  A    between atoms: _142  and  _143
REMARK   64  A    between atoms: _149  and  _151
REMARK   65  A    between atoms: _151  and  _152
REMARK   66  A    between atoms: _151  and  _154
REMARK   67  A    between atoms: _157  and  _159
REMARK   68  A    between atoms: _159  and  _160
REMARK   69  A    between atoms: _163  and  _165
REMARK   70  A    between atoms: _165  and  _166
REMARK   71  A    between atoms: _165  and  _168
REMARK   72  A    between atoms: _168  and  _169
REMARK   73  A    between atoms: _169  and  _170
REMARK   74  A    between atoms: _172  and  _174
REMARK   75  A    between atoms: _174  and  _175
REMARK   76  A    between atoms: _174  and  _177
REMARK   77  A    between atoms: _180  and  _182
REMARK   78  A    between atoms: _182  and  _183
REMARK   79  A    between atoms: _182  and  _185
REMARK   80  A    between atoms: _185  and  _186
REMARK   81  A    between atoms: _189  and  _191
REMARK   82  A    between atoms: _191  and  _192
REMARK   83  A    between atoms: _191  and  _194
REMARK   84  A    between atoms: _194  and  _195
REMARK   85  A    between atoms: _198  and  _200
REMARK   86  A    between atoms: _200  and  _201
REMARK   87  A    between atoms: _204  and  _206
REMARK   88  A    between atoms: _206  and  _207
REMARK   89  A    between atoms: _206  and  _209
REMARK   90  A    between atoms: _211  and  _213
REMARK   91  A    between atoms: _213  and  _214
REMARK   92  A    between atoms: _213  and  _216
REMARK   93  A    between atoms: _216  and  _217
REMARK   94  A    between atoms: _217  and  _218
REMARK                            x       y       z     vdW  Elec       q    Type
REMARK                         _______ _______ _______ _____ _____    ______ ____
ROOT
ATOM      1  CA  LEU A   2       4.072  10.268  33.919  0.00  0.00    +0.149 C 
ENDROOT
BRANCH   1   3
ATOM      2  C   PHE A   1       5.433  10.832  31.970  0.00  0.00    +0.239 C 
ATOM      3  N   LEU A   2       5.168  10.000  32.966  0.00  0.00    -0.297 N 
ATOM      4  H   LEU A   2       5.743   9.141  33.079  0.00  0.00    +0.150 HD
ATOM      5  O   PHE A   1       4.798  11.854  31.817  0.00  0.00    -0.274 OA
BRANCH   2   6
ATOM      6  CA  PHE A   1       6.544  10.458  30.975  0.00  0.00    +0.149 C 
BRANCH   6   7
ATOM      7  N   PHE A   1       7.846  10.108  31.541  0.00  0.00    -0.238 NA
ATOM      8  H   PHE A   1       7.995   9.155  31.931  0.00  0.00    +0.142 HD
ENDBRANCH   6   7
BRANCH   6   9
ATOM      9  CB  PHE A   1       6.081   9.375  30.006  0.00  0.00    +0.053 C 
BRANCH   9  10
ATOM     10  CG  PHE A   1       6.993   9.192  28.816  0.00  0.00    -0.020 A 
ATOM     11  CD2 PHE A   1       8.085  10.041  28.591  0.00  0.00    -0.004 A 
ATOM     12  CE2 PHE A   1       8.932   9.864  27.482  0.00  0.00    -0.000 A 
ATOM     13  CZ  PHE A   1       8.652   8.862  26.572  0.00  0.00    -0.000 A 
ATOM     14  CE1 PHE A   1       7.527   8.036  26.771  0.00  0.00    -0.000 A 
ATOM     15  CD1 PHE A   1       6.716   8.215  27.880  0.00  0.00    -0.004 A 
ENDBRANCH   9  10
ENDBRANCH   6   9
ENDBRANCH   2   6
ENDBRANCH   1   3
BRANCH   1  16
ATOM     16  C   LEU A   2       4.627  10.629  35.276  0.00  0.00    +0.241 C 
ATOM     17  N   GLU A   3       3.813  11.312  36.092  0.00  0.00    -0.298 N 
ATOM     18  H   GLU A   3       2.881  11.593  35.726  0.00  0.00    +0.150 HD
ATOM     19  O   LEU A   2       5.745  10.234  35.585  0.00  0.00    -0.273 OA
BRANCH  17  20
ATOM     20  CA  GLU A   3       4.155  11.690  37.476  0.00  0.00    +0.137 C 
BRANCH  20  21
ATOM     21  C   GLU A   3       4.308  10.449  38.364  0.00  0.00    +0.227 C 
ATOM     22  O   GLU A   3       3.481   9.548  38.295  0.00  0.00    -0.286 OA
ENDBRANCH  20  21
BRANCH  20  23
ATOM     23  CB  GLU A   3       3.074  12.627  38.060  0.00  0.00    +0.039 C 
BRANCH  23  24
ATOM     24  CG  GLU A   3       2.788  13.865  37.191  0.00  0.00    +0.116 C 
BRANCH  24  25
ATOM     25  CD  GLU A   3       2.241  15.084  37.940  0.00  0.00    +0.365 C 
ATOM     26  OE2 GLU A   3       1.176  14.972  38.605  0.00  0.00    -0.246 OA
ATOM     27  OE1 GLU A   3       2.858  16.188  37.818  0.00  0.00    -0.246 OA
ENDBRANCH  24  25
ENDBRANCH  23  24
ENDBRANCH  20  23
ENDBRANCH  17  20
ENDBRANCH   1  16
BRANCH   1  28
ATOM     28  CB  LEU A   2       3.196   9.019  34.084  0.00  0.00    +0.029 C 
BRANCH  28  29
ATOM     29  CG  LEU A   2       2.755   8.298  32.802  0.00  0.00    +0.002 C 
ATOM     30  CD2 LEU A   2       2.104   6.957  33.159  0.00  0.00    +0.000 C 
ATOM     31  CD1 LEU A   2       1.816   9.153  31.948  0.00  0.00    +0.000 C 
ENDBRANCH  28  29
ENDBRANCH   1  28
TORSDOF 13
REMARK  Name = ../refined-set-2016/3hcm/3hcm_pocket.pdb
REMARK  94 active torsions:
REMARK  status: ('A' for Active; 'I' for Inactive)
REMARK    1  A    between atoms: _1  and  _3
REMARK    2  A    between atoms: _3  and  _4
REMARK    3  A    between atoms: _3  and  _6
REMARK    4  A    between atoms: _6  and  _7
REMARK    5  A    between atoms: _10  and  _12
REMARK    6  A    between atoms: _12  and  _13
REMARK    7  A    between atoms: _12  and  _15
REMARK    8  A    between atoms: _15  and  _16
REMARK    9  A    between atoms: _19  and  _21
REMARK   10  A    between atoms: _21  and  _22
REMARK   11  A    between atoms: _21  and  _24
REMARK   12  A    between atoms: _24  and  _25
REMARK   13  A    between atoms: _31  and  _33
REMARK   14  A    between atoms: _33  and  _34
REMARK   15  A    between atoms: _33  and  _36
REMARK   16  A    between atoms: _36  and  _37
REMARK   17  A    between atoms: _40  and  _42
REMARK   18  A    between atoms: _42  and  _43
REMARK   19  A    between atoms: _42  and  _45
REMARK   20  A    between atoms: _45  and  _46
REMARK   21  A    between atoms: _46  and  _47
REMARK   22  A    between atoms: _50  and  _52
REMARK   23  A    between atoms: _52  and  _53
REMARK   24  A    between atoms: _52  and  _55
REMARK   25  A    between atoms: _55  and  _56
REMARK   26  A    between atoms: _56  and  _57
REMARK   27  A    between atoms: _57  and  _58
REMARK   28  A    between atoms: _58  and  _59
REMARK   29  A    between atoms: _63  and  _65
REMARK   30  A    between atoms: _65  and  _66
REMARK   31  A    between atoms: _65  and  _68
REMARK   32  A    between atoms: _71  and  _73
REMARK   33  A    between atoms: _73  and  _74
REMARK   34  A    between atoms: _73  and  _76
REMARK   35  A    between atoms: _76  and  _77
REMARK   36  A    between atoms: _80  and  _82
REMARK   37  A    between atoms: _82  and  _83
REMARK   38  A    between atoms: _82  and  _85
REMARK   39  A    between atoms: _85  and  _86
REMARK   40  A    between atoms: _89  and  _91
REMARK   41  A    between atoms: _91  and  _92
REMARK   42  A    between atoms: _91  and  _94
REMARK   43  A    between atoms: _94  and  _95
REMARK   44  A    between atoms: _100  and  _102
REMARK   45  A    between atoms: _102  and  _103
REMARK   46  A    between atoms: _102  and  _105
REMARK   47  A    between atoms: _105  and  _106
REMARK   48  A    between atoms: _106  and  _107
REMARK   49  A    between atoms: _110  and  _112
REMARK   50  A    between atoms: _112  and  _113
REMARK   51  A    between atoms: _112  and  _115
REMARK   52  A    between atoms: _115  and  _116
REMARK   53  A    between atoms: _122  and  _124
REMARK   54  A    between atoms: _124  and  _125
REMARK   55  A    between atoms: _124  and  _127
REMARK   56  A    between atoms: _127  and  _128
REMARK   57  A    between atoms: _128  and  _129
REMARK   58  A    between atoms: _131  and  _133
REMARK   59  A    between atoms: _133  and  _134
REMARK   60  A    between atoms: _137  and  _139
REMARK   61  A    between atoms: _139  and  _140
REMARK   62  A    between atoms: _139  and  _142
REMARK   63  A    between atoms: _142  and  _143
REMARK   64  A    between atoms: _149  and  _151
REMARK   65  A    between atoms: _151  and  _152
REMARK   66  A    between atoms: _151  and  _154
REMARK   67  A    between atoms: _157  and  _159
REMARK   68  A    between atoms: _159  and  _160
REMARK   69  A    between atoms: _163  and  _165
REMARK   70  A    between atoms: _165  and  _166
REMARK   71  A    between atoms: _165  and  _168
REMARK   72  A    between atoms: _168  and  _169
REMARK   73  A    between atoms: _169  and  _170
REMARK   74  A    between atoms: _172  and  _174
REMARK   75  A    between atoms: _174  and  _175
REMARK   76  A    between atoms: _174  and  _177
REMARK   77  A    between atoms: _180  and  _182
REMARK   78  A    between atoms: _182  and  _183
REMARK   79  A    between atoms: _182  and  _185
REMARK   80  A    between atoms: _185  and  _186
REMARK   81  A    between atoms: _189  and  _191
REMARK   82  A    between atoms: _191  and  _192
REMARK   83  A    between atoms: _191  and  _194
REMARK   84  A    between atoms: _194  and  _195
REMARK   85  A    between atoms: _198  and  _200
REMARK   86  A    between atoms: _200  and  _201
REMARK   87  A    between atoms: _204  and  _206
REMARK   88  A    between atoms: _206  and  _207
REMARK   89  A    between atoms: _206  and  _209
REMARK   90  A    between atoms: _211  and  _213
REMARK   91  A    between atoms: _213  and  _214
REMARK   92  A    between atoms: _213  and  _216
REMARK   93  A    between atoms: _216  and  _217
REMARK   94  A    between atoms: _217  and  _218
REMARK                            x       y       z     vdW  Elec       q    Type
REMARK                         _______ _______ _______ _____ _____    ______ ____
ROOT
ATOM      1  CA  LYS A   1      -7.918   5.510  39.725  0.00  0.00    +0.145 C 
ENDROOT
BRANCH   1   2
ATOM      2  C   LYS A   1      -7.357   5.017  38.397  0.00  0.00    +0.238 C 
ATOM      3  N   VAL A   2      -6.055   4.831  38.346  0.00  0.00    -0.298 N 
ATOM      4  H   VAL A   2      -5.476   5.032  39.186  0.00  0.00    +0.150 HD
ATOM      5  O   LYS A   1      -8.103   4.820  37.435  0.00  0.00    -0.274 OA
BRANCH   3   6
ATOM      6  CA  VAL A   2      -5.413   4.348  37.132  0.00  0.00    +0.137 C 
BRANCH   6   7
ATOM      7  CB  VAL A   2      -3.870   4.488  37.214  0.00  0.00    +0.026 C 
ATOM      8  CG2 VAL A   2      -3.511   5.962  37.012  0.00  0.00    +0.002 C 
ATOM      9  CG1 VAL A   2      -3.133   3.582  36.174  0.00  0.00    +0.002 C 
ENDBRANCH   6   7
BRANCH   6  10
ATOM     10  C   VAL A   2      -5.898   2.946  36.814  0.00  0.00    +0.227 C 
ATOM     11  O   VAL A   2      -6.262   2.692  35.670  0.00  0.00    -0.286 OA
ENDBRANCH   6  10
ENDBRANCH   3   6
ENDBRANCH   1   2
BRANCH   1  12
ATOM     12  N   LYS A   1      -7.346   4.864  40.904  0.00  0.00    -0.238 NA
ATOM     13  H   LYS A   1      -6.871   5.424  41.640  0.00  0.00    +0.142 HD
ENDBRANCH   1  12
BRANCH   1  14
ATOM     14  CB  LYS A   1      -7.932   7.033  39.815  0.00  0.00    +0.026 C 
BRANCH  14  15
ATOM     15  CG  LYS A   1      -8.914   7.522  40.866  0.00  0.00    -0.000 C 
BRANCH  15  16
ATOM     16  CD  LYS A   1     -10.346   7.103  40.544  0.00  0.00    -0.024 C 
BRANCH  16  17
ATOM     17  CE  LYS A   1     -11.233   7.158  41.774  0.00  0.00    -0.086 C 
BRANCH  17  18
ATOM     18  NZ  LYS A   1     -12.475   6.333  41.644  0.00  0.00    +0.380 N 
ATOM     19  HZ1 LYS A   1     -13.036   6.414  42.516  0.00  0.00    -0.089 HD
ATOM     20  HZ2 LYS A   1     -12.214   5.338  41.489  0.00  0.00    -0.089 HD
ATOM     21  HZ3 LYS A   1     -13.035   6.676  40.837  0.00  0.00    -0.089 HD
ENDBRANCH  17  18
ENDBRANCH  16  17
ENDBRANCH  15  16
ENDBRANCH  14  15
ENDBRANCH   1  14
TORSDOF 10
REMARK  Name = ../refined-set-2016/3hcm/3hcm_pocket.pdb
REMARK  94 active torsions:
REMARK  status: ('A' for Active; 'I' for Inactive)
REMARK    1  A    between atoms: _1  and  _3
REMARK    2  A    between atoms: _3  and  _4
REMARK    3  A    between atoms: _3  and  _6
REMARK    4  A    between atoms: _6  and  _7
REMARK    5  A    between atoms: _10  and  _12
REMARK    6  A    between atoms: _12  and  _13
REMARK    7  A    between atoms: _12  and  _15
REMARK    8  A    between atoms: _15  and  _16
REMARK    9  A    between atoms: _19  and  _21
REMARK   10  A    between atoms: _21  and  _22
REMARK   11  A    between atoms: _21  and  _24
REMARK   12  A    between atoms: _24  and  _25
REMARK   13  A    between atoms: _31  and  _33
REMARK   14  A    between atoms: _33  and  _34
REMARK   15  A    between atoms: _33  and  _36
REMARK   16  A    between atoms: _36  and  _37
REMARK   17  A    between atoms: _40  and  _42
REMARK   18  A    between atoms: _42  and  _43
REMARK   19  A    between atoms: _42  and  _45
REMARK   20  A    between atoms: _45  and  _46
REMARK   21  A    between atoms: _46  and  _47
REMARK   22  A    between atoms: _50  and  _52
REMARK   23  A    between atoms: _52  and  _53
REMARK   24  A    between atoms: _52  and  _55
REMARK   25  A    between atoms: _55  and  _56
REMARK   26  A    between atoms: _56  and  _57
REMARK   27  A    between atoms: _57  and  _58
REMARK   28  A    between atoms: _58  and  _59
REMARK   29  A    between atoms: _63  and  _65
REMARK   30  A    between atoms: _65  and  _66
REMARK   31  A    between atoms: _65  and  _68
REMARK   32  A    between atoms: _71  and  _73
REMARK   33  A    between atoms: _73  and  _74
REMARK   34  A    between atoms: _73  and  _76
REMARK   35  A    between atoms: _76  and  _77
REMARK   36  A    between atoms: _80  and  _82
REMARK   37  A    between atoms: _82  and  _83
REMARK   38  A    between atoms: _82  and  _85
REMARK   39  A    between atoms: _85  and  _86
REMARK   40  A    between atoms: _89  and  _91
REMARK   41  A    between atoms: _91  and  _92
REMARK   42  A    between atoms: _91  and  _94
REMARK   43  A    between atoms: _94  and  _95
REMARK   44  A    between atoms: _100  and  _102
REMARK   45  A    between atoms: _102  and  _103
REMARK   46  A    between atoms: _102  and  _105
REMARK   47  A    between atoms: _105  and  _106
REMARK   48  A    between atoms: _106  and  _107
REMARK   49  A    between atoms: _110  and  _112
REMARK   50  A    between atoms: _112  and  _113
REMARK   51  A    between atoms: _112  and  _115
REMARK   52  A    between atoms: _115  and  _116
REMARK   53  A    between atoms: _122  and  _124
REMARK   54  A    between atoms: _124  and  _125
REMARK   55  A    between atoms: _124  and  _127
REMARK   56  A    between atoms: _127  and  _128
REMARK   57  A    between atoms: _128  and  _129
REMARK   58  A    between atoms: _131  and  _133
REMARK   59  A    between atoms: _133  and  _134
REMARK   60  A    between atoms: _137  and  _139
REMARK   61  A    between atoms: _139  and  _140
REMARK   62  A    between atoms: _139  and  _142
REMARK   63  A    between atoms: _142  and  _143
REMARK   64  A    between atoms: _149  and  _151
REMARK   65  A    between atoms: _151  and  _152
REMARK   66  A    between atoms: _151  and  _154
REMARK   67  A    between atoms: _157  and  _159
REMARK   68  A    between atoms: _159  and  _160
REMARK   69  A    between atoms: _163  and  _165
REMARK   70  A    between atoms: _165  and  _166
REMARK   71  A    between atoms: _165  and  _168
REMARK   72  A    between atoms: _168  and  _169
REMARK   73  A    between atoms: _169  and  _170
REMARK   74  A    between atoms: _172  and  _174
REMARK   75  A    between atoms: _174  and  _175
REMARK   76  A    between atoms: _174  and  _177
REMARK   77  A    between atoms: _180  and  _182
REMARK   78  A    between atoms: _182  and  _183
REMARK   79  A    between atoms: _182  and  _185
REMARK   80  A    between atoms: _185  and  _186
REMARK   81  A    between atoms: _189  and  _191
REMARK   82  A    between atoms: _191  and  _192
REMARK   83  A    between atoms: _191  and  _194
REMARK   84  A    between atoms: _194  and  _195
REMARK   85  A    between atoms: _198  and  _200
REMARK   86  A    between atoms: _200  and  _201
REMARK   87  A    between atoms: _204  and  _206
REMARK   88  A    between atoms: _206  and  _207
REMARK   89  A    between atoms: _206  and  _209
REMARK   90  A    between atoms: _211  and  _213
REMARK   91  A    between atoms: _213  and  _214
REMARK   92  A    between atoms: _213  and  _216
REMARK   93  A    between atoms: _216  and  _217
REMARK   94  A    between atoms: _217  and  _218
REMARK                            x       y       z     vdW  Elec       q    Type
REMARK                         _______ _______ _______ _____ _____    ______ ____
ROOT
ATOM      1  C   THR A   1      -9.024   2.367  33.220  0.00  0.00    +0.241 C 
ATOM      2  N   LEU A   2      -8.043   1.539  33.567  0.00  0.00    -0.298 N 
ATOM      3  H   LEU A   2      -7.629   1.617  34.518  0.00  0.00    +0.150 HD
ATOM      4  O   THR A   1      -9.590   2.294  32.128  0.00  0.00    -0.274 OA
ENDROOT
BRANCH   1   5
ATOM      5  CA  THR A   1      -9.430   3.456  34.231  0.00  0.00    +0.172 C 
BRANCH   5   6
ATOM      6  N   THR A   1      -9.523   3.011  35.633  0.00  0.00    -0.236 NA
ATOM      7  H   THR A   1      -9.006   3.547  36.359  0.00  0.00    +0.142 HD
ENDBRANCH   5   6
BRANCH   5   8
ATOM      8  CB  THR A   1      -8.440   4.605  34.083  0.00  0.00    +0.135 C 
ATOM      9  CG2 THR A   1      -8.560   5.253  32.710  0.00  0.00    +0.034 C 
BRANCH   8  10
ATOM     10  OG1 THR A   1      -8.678   5.572  35.101  0.00  0.00    -0.383 OA
ATOM     11  HG1 THR A   1      -8.563   5.150  35.989  0.00  0.00    +0.210 HD
ENDBRANCH   8  10
ENDBRANCH   5   8
ENDBRANCH   1   5
BRANCH   2  12
ATOM     12  CA  LEU A   2      -7.524   0.510  32.639  0.00  0.00    +0.137 C 
BRANCH  12  13
ATOM     13  C   LEU A   2      -8.287  -0.800  32.600  0.00  0.00    +0.227 C 
ATOM     14  O   LEU A   2      -8.290  -1.492  31.589  0.00  0.00    -0.286 OA
ENDBRANCH  12  13
BRANCH  12  15
ATOM     15  CB  LEU A   2      -6.047   0.188  32.943  0.00  0.00    +0.028 C 
BRANCH  15  16
ATOM     16  CG  LEU A   2      -5.130   1.394  32.901  0.00  0.00    +0.002 C 
ATOM     17  CD2 LEU A   2      -3.688   0.973  33.240  0.00  0.00    +0.000 C 
ATOM     18  CD1 LEU A   2      -5.235   2.095  31.543  0.00  0.00    +0.000 C 
ENDBRANCH  15  16
ENDBRANCH  12  15
ENDBRANCH   2  12
TORSDOF 8
REMARK  Name = ../refined-set-2016/3hcm/3hcm_pocket.pdb
REMARK  94 active torsions:
REMARK  status: ('A' for Active; 'I' for Inactive)
REMARK    1  A    between atoms: _1  and  _3
REMARK    2  A    between atoms: _3  and  _4
REMARK    3  A    between atoms: _3  and  _6
REMARK    4  A    between atoms: _6  and  _7
REMARK    5  A    between atoms: _10  and  _12
REMARK    6  A    between atoms: _12  and  _13
REMARK    7  A    between atoms: _12  and  _15
REMARK    8  A    between atoms: _15  and  _16
REMARK    9  A    between atoms: _19  and  _21
REMARK   10  A    between atoms: _21  and  _22
REMARK   11  A    between atoms: _21  and  _24
REMARK   12  A    between atoms: _24  and  _25
REMARK   13  A    between atoms: _31  and  _33
REMARK   14  A    between atoms: _33  and  _34
REMARK   15  A    between atoms: _33  and  _36
REMARK   16  A    between atoms: _36  and  _37
REMARK   17  A    between atoms: _40  and  _42
REMARK   18  A    between atoms: _42  and  _43
REMARK   19  A    between atoms: _42  and  _45
REMARK   20  A    between atoms: _45  and  _46
REMARK   21  A    between atoms: _46  and  _47
REMARK   22  A    between atoms: _50  and  _52
REMARK   23  A    between atoms: _52  and  _53
REMARK   24  A    between atoms: _52  and  _55
REMARK   25  A    between atoms: _55  and  _56
REMARK   26  A    between atoms: _56  and  _57
REMARK   27  A    between atoms: _57  and  _58
REMARK   28  A    between atoms: _58  and  _59
REMARK   29  A    between atoms: _63  and  _65
REMARK   30  A    between atoms: _65  and  _66
REMARK   31  A    between atoms: _65  and  _68
REMARK   32  A    between atoms: _71  and  _73
REMARK   33  A    between atoms: _73  and  _74
REMARK   34  A    between atoms: _73  and  _76
REMARK   35  A    between atoms: _76  and  _77
REMARK   36  A    between atoms: _80  and  _82
REMARK   37  A    between atoms: _82  and  _83
REMARK   38  A    between atoms: _82  and  _85
REMARK   39  A    between atoms: _85  and  _86
REMARK   40  A    between atoms: _89  and  _91
REMARK   41  A    between atoms: _91  and  _92
REMARK   42  A    between atoms: _91  and  _94
REMARK   43  A    between atoms: _94  and  _95
REMARK   44  A    between atoms: _100  and  _102
REMARK   45  A    between atoms: _102  and  _103
REMARK   46  A    between atoms: _102  and  _105
REMARK   47  A    between atoms: _105  and  _106
REMARK   48  A    between atoms: _106  and  _107
REMARK   49  A    between atoms: _110  and  _112
REMARK   50  A    between atoms: _112  and  _113
REMARK   51  A    between atoms: _112  and  _115
REMARK   52  A    between atoms: _115  and  _116
REMARK   53  A    between atoms: _122  and  _124
REMARK   54  A    between atoms: _124  and  _125
REMARK   55  A    between atoms: _124  and  _127
REMARK   56  A    between atoms: _127  and  _128
REMARK   57  A    between atoms: _128  and  _129
REMARK   58  A    between atoms: _131  and  _133
REMARK   59  A    between atoms: _133  and  _134
REMARK   60  A    between atoms: _137  and  _139
REMARK   61  A    between atoms: _139  and  _140
REMARK   62  A    between atoms: _139  and  _142
REMARK   63  A    between atoms: _142  and  _143
REMARK   64  A    between atoms: _149  and  _151
REMARK   65  A    between atoms: _151  and  _152
REMARK   66  A    between atoms: _151  and  _154
REMARK   67  A    between atoms: _157  and  _159
REMARK   68  A    between atoms: _159  and  _160
REMARK   69  A    between atoms: _163  and  _165
REMARK   70  A    between atoms: _165  and  _166
REMARK   71  A    between atoms: _165  and  _168
REMARK   72  A    between atoms: _168  and  _169
REMARK   73  A    between atoms: _169  and  _170
REMARK   74  A    between atoms: _172  and  _174
REMARK   75  A    between atoms: _174  and  _175
REMARK   76  A    between atoms: _174  and  _177
REMARK   77  A    between atoms: _180  and  _182
REMARK   78  A    between atoms: _182  and  _183
REMARK   79  A    between atoms: _182  and  _185
REMARK   80  A    between atoms: _185  and  _186
REMARK   81  A    between atoms: _189  and  _191
REMARK   82  A    between atoms: _191  and  _192
REMARK   83  A    between atoms: _191  and  _194
REMARK   84  A    between atoms: _194  and  _195
REMARK   85  A    between atoms: _198  and  _200
REMARK   86  A    between atoms: _200  and  _201
REMARK   87  A    between atoms: _204  and  _206
REMARK   88  A    between atoms: _206  and  _207
REMARK   89  A    between atoms: _206  and  _209
REMARK   90  A    between atoms: _211  and  _213
REMARK   91  A    between atoms: _213  and  _214
REMARK   92  A    between atoms: _213  and  _216
REMARK   93  A    between atoms: _216  and  _217
REMARK   94  A    between atoms: _217  and  _218
REMARK                            x       y       z     vdW  Elec       q    Type
REMARK                         _______ _______ _______ _____ _____    ______ ____
ROOT
ATOM      1  CB  ASN A   1     -11.943  -3.028  29.744  0.00  0.00    +0.110 C 
ENDROOT
BRANCH   1   2
ATOM      2  CG  ASN A   1     -11.736  -1.654  29.229  0.00  0.00    +0.221 C 
ATOM      3  OD1 ASN A   1     -12.087  -0.675  29.881  0.00  0.00    -0.275 OA
ATOM      4  ND2 ASN A   1     -11.179  -1.559  28.028  0.00  0.00    -0.329 N 
ATOM      5 HD21 ASN A   1     -11.023  -0.624  27.600  0.00  0.00    +0.145 HD
ATOM      6 HD22 ASN A   1     -10.899  -2.419  27.515  0.00  0.00    +0.145 HD
ENDBRANCH   1   2
BRANCH   1   7
ATOM      7  CA  ASN A   1     -12.273  -3.052  31.232  0.00  0.00    +0.142 C 
BRANCH   7   8
ATOM      8  N   ASN A   1     -11.023  -3.033  32.000  0.00  0.00    -0.239 NA
ATOM      9  H   ASN A   1     -10.177  -3.470  31.583  0.00  0.00    +0.142 HD
ENDBRANCH   7   8
BRANCH   7  10
ATOM     10  C   ASN A   1     -13.167  -4.259  31.479  0.00  0.00    +0.225 C 
ATOM     11  O   ASN A   1     -14.361  -4.232  31.171  0.00  0.00    -0.287 OA
ENDBRANCH   7  10
ENDBRANCH   1   7
TORSDOF 4
REMARK  Name = ../refined-set-2016/3hcm/3hcm_pocket.pdb
REMARK  94 active torsions:
REMARK  status: ('A' for Active; 'I' for Inactive)
REMARK    1  A    between atoms: _1  and  _3
REMARK    2  A    between atoms: _3  and  _4
REMARK    3  A    between atoms: _3  and  _6
REMARK    4  A    between atoms: _6  and  _7
REMARK    5  A    between atoms: _10  and  _12
REMARK    6  A    between atoms: _12  and  _13
REMARK    7  A    between atoms: _12  and  _15
REMARK    8  A    between atoms: _15  and  _16
REMARK    9  A    between atoms: _19  and  _21
REMARK   10  A    between atoms: _21  and  _22
REMARK   11  A    between atoms: _21  and  _24
REMARK   12  A    between atoms: _24  and  _25
REMARK   13  A    between atoms: _31  and  _33
REMARK   14  A    between atoms: _33  and  _34
REMARK   15  A    between atoms: _33  and  _36
REMARK   16  A    between atoms: _36  and  _37
REMARK   17  A    between atoms: _40  and  _42
REMARK   18  A    between atoms: _42  and  _43
REMARK   19  A    between atoms: _42  and  _45
REMARK   20  A    between atoms: _45  and  _46
REMARK   21  A    between atoms: _46  and  _47
REMARK   22  A    between atoms: _50  and  _52
REMARK   23  A    between atoms: _52  and  _53
REMARK   24  A    between atoms: _52  and  _55
REMARK   25  A    between atoms: _55  and  _56
REMARK   26  A    between atoms: _56  and  _57
REMARK   27  A    between atoms: _57  and  _58
REMARK   28  A    between atoms: _58  and  _59
REMARK   29  A    between atoms: _63  and  _65
REMARK   30  A    between atoms: _65  and  _66
REMARK   31  A    between atoms: _65  and  _68
REMARK   32  A    between atoms: _71  and  _73
REMARK   33  A    between atoms: _73  and  _74
REMARK   34  A    between atoms: _73  and  _76
REMARK   35  A    between atoms: _76  and  _77
REMARK   36  A    between atoms: _80  and  _82
REMARK   37  A    between atoms: _82  and  _83
REMARK   38  A    between atoms: _82  and  _85
REMARK   39  A    between atoms: _85  and  _86
REMARK   40  A    between atoms: _89  and  _91
REMARK   41  A    between atoms: _91  and  _92
REMARK   42  A    between atoms: _91  and  _94
REMARK   43  A    between atoms: _94  and  _95
REMARK   44  A    between atoms: _100  and  _102
REMARK   45  A    between atoms: _102  and  _103
REMARK   46  A    between atoms: _102  and  _105
REMARK   47  A    between atoms: _105  and  _106
REMARK   48  A    between atoms: _106  and  _107
REMARK   49  A    between atoms: _110  and  _112
REMARK   50  A    between atoms: _112  and  _113
REMARK   51  A    between atoms: _112  and  _115
REMARK   52  A    between atoms: _115  and  _116
REMARK   53  A    between atoms: _122  and  _124
REMARK   54  A    between atoms: _124  and  _125
REMARK   55  A    between atoms: _124  and  _127
REMARK   56  A    between atoms: _127  and  _128
REMARK   57  A    between atoms: _128  and  _129
REMARK   58  A    between atoms: _131  and  _133
REMARK   59  A    between atoms: _133  and  _134
REMARK   60  A    between atoms: _137  and  _139
REMARK   61  A    between atoms: _139  and  _140
REMARK   62  A    between atoms: _139  and  _142
REMARK   63  A    between atoms: _142  and  _143
REMARK   64  A    between atoms: _149  and  _151
REMARK   65  A    between atoms: _151  and  _152
REMARK   66  A    between atoms: _151  and  _154
REMARK   67  A    between atoms: _157  and  _159
REMARK   68  A    between atoms: _159  and  _160
REMARK   69  A    between atoms: _163  and  _165
REMARK   70  A    between atoms: _165  and  _166
REMARK   71  A    between atoms: _165  and  _168
REMARK   72  A    between atoms: _168  and  _169
REMARK   73  A    between atoms: _169  and  _170
REMARK   74  A    between atoms: _172  and  _174
REMARK   75  A    between atoms: _174  and  _175
REMARK   76  A    between atoms: _174  and  _177
REMARK   77  A    between atoms: _180  and  _182
REMARK   78  A    between atoms: _182  and  _183
REMARK   79  A    between atoms: _182  and  _185
REMARK   80  A    between atoms: _185  and  _186
REMARK   81  A    between atoms: _189  and  _191
REMARK   82  A    between atoms: _191  and  _192
REMARK   83  A    between atoms: _191  and  _194
REMARK   84  A    between atoms: _194  and  _195
REMARK   85  A    between atoms: _198  and  _200
REMARK   86  A    between atoms: _200  and  _201
REMARK   87  A    between atoms: _204  and  _206
REMARK   88  A    between atoms: _206  and  _207
REMARK   89  A    between atoms: _206  and  _209
REMARK   90  A    between atoms: _211  and  _213
REMARK   91  A    between atoms: _213  and  _214
REMARK   92  A    between atoms: _213  and  _216
REMARK   93  A    between atoms: _216  and  _217
REMARK   94  A    between atoms: _217  and  _218
REMARK                            x       y       z     vdW  Elec       q    Type
REMARK                         _______ _______ _______ _____ _____    ______ ____
ROOT
ATOM      1  C   VAL A   6       0.107   3.236  25.018  0.00  0.00    +0.241 C 
ATOM      2  O   VAL A   6       0.803   4.261  24.881  0.00  0.00    -0.273 OA
ATOM      3  N   ALA A   7      -0.992   2.990  24.312  0.00  0.00    -0.297 N 
ATOM      4  H   ALA A   7      -1.529   2.127  24.534  0.00  0.00    +0.150 HD
ENDROOT
BRANCH   3   5
ATOM      5  CA  ALA A   7      -1.493   3.845  23.252  0.00  0.00    +0.149 C 
ATOM      6  CB  ALA A   7      -2.647   3.117  22.501  0.00  0.00    +0.031 C 
BRANCH   5   7
ATOM      7  C   ALA A   7      -1.956   5.192  23.818  0.00  0.00    +0.241 C 
ATOM      8  N   MET A   8      -2.589   5.196  24.982  0.00  0.00    -0.297 N 
ATOM      9  H   MET A   8      -2.830   4.304  25.459  0.00  0.00    +0.150 HD
ATOM     10  O   ALA A   7      -1.684   6.230  23.251  0.00  0.00    -0.273 OA
BRANCH   8  11
ATOM     11  CA  MET A   8      -2.941   6.482  25.580  0.00  0.00    +0.149 C 
BRANCH  11  12
ATOM     12  C   MET A   8      -1.763   7.291  26.093  0.00  0.00    +0.241 C 
ATOM     13  N   VAL A   9      -0.714   6.652  26.612  0.00  0.00    -0.297 N 
ATOM     14  H   VAL A   9      -0.725   5.620  26.740  0.00  0.00    +0.150 HD
ATOM     15  O   MET A   8      -1.798   8.511  26.021  0.00  0.00    -0.273 OA
BRANCH  13  16
ATOM     16  CA  VAL A   9       0.453   7.446  26.996  0.00  0.00    +0.149 C 
BRANCH  16  17
ATOM     17  C   VAL A   9       1.141   7.982  25.732  0.00  0.00    +0.241 C 
ATOM     18  O   VAL A   9       1.422   9.174  25.633  0.00  0.00    -0.273 OA
ATOM     19  N   THR A  10       1.404   7.080  24.783  0.00  0.00    -0.295 N 
ATOM     20  H   THR A  10       1.169   6.086  24.981  0.00  0.00    +0.150 HD
BRANCH  19  21
ATOM     21  CA  THR A  10       2.002   7.395  23.479  0.00  0.00    +0.176 C 
BRANCH  21  22
ATOM     22  C   THR A  10       1.296   8.572  22.792  0.00  0.00    +0.243 C 
ATOM     23  N   THR A  11      -0.022   8.529  22.758  0.00  0.00    -0.295 N 
ATOM     24  H   THR A  11      -0.508   7.672  23.090  0.00  0.00    +0.150 HD
ATOM     25  O   THR A  10       1.944   9.510  22.324  0.00  0.00    -0.273 OA
BRANCH  23  26
ATOM     26  CA  THR A  11      -0.826   9.663  22.262  0.00  0.00    +0.176 C 
BRANCH  26  27
ATOM     27  C   THR A  11      -0.593  10.967  23.059  0.00  0.00    +0.243 C 
ATOM     28  N   ALA A  12      -0.707  10.933  24.392  0.00  0.00    -0.297 N 
ATOM     29  H   ALA A  12      -1.025  10.060  24.860  0.00  0.00    +0.150 HD
ATOM     30  O   THR A  11      -0.256  11.992  22.450  0.00  0.00    -0.273 OA
BRANCH  28  31
ATOM     31  CA  ALA A  12      -0.383  12.132  25.211  0.00  0.00    +0.149 C 
ATOM     32  CB  ALA A  12      -0.758  11.941  26.684  0.00  0.00    +0.031 C 
BRANCH  31  33
ATOM     33  C   ALA A  12       1.078  12.602  25.083  0.00  0.00    +0.241 C 
ATOM     34  O   ALA A  12       1.394  13.760  25.392  0.00  0.00    -0.273 OA
ATOM     35  N   CYS A  13       1.959  11.712  24.635  0.00  0.00    -0.297 N 
ATOM     36  H   CYS A  13       1.700  10.705  24.625  0.00  0.00    +0.150 HD
BRANCH  35  37
ATOM     37  CA  CYS A  13       3.278  12.110  24.158  0.00  0.00    +0.149 C 
BRANCH  37  38
ATOM     38  CB  CYS A  13       4.281  10.942  24.226  0.00  0.00    +0.096 C 
ATOM     39  SG  CYS A  13       5.844  11.335  23.448  0.00  0.00    -0.080 S 
ENDBRANCH  37  38
BRANCH  37  40
ATOM     40  C   CYS A  13       3.220  12.693  22.736  0.00  0.00    +0.228 C 
ATOM     41  O   CYS A  13       3.814  13.726  22.481  0.00  0.00    -0.286 OA
ENDBRANCH  37  40
ENDBRANCH  35  37
ENDBRANCH  31  33
ENDBRANCH  28  31
ENDBRANCH  26  27
BRANCH  26  42
ATOM     42  CB  THR A  11      -2.322   9.319  22.154  0.00  0.00    +0.137 C 
ATOM     43  CG2 THR A  11      -3.051  10.398  21.335  0.00  0.00    +0.034 C 
BRANCH  42  44
ATOM     44  OG1 THR A  11      -2.465   8.052  21.498  0.00  0.00    -0.382 OA
ATOM     45  HG1 THR A  11      -1.999   7.355  22.024  0.00  0.00    +0.210 HD
ENDBRANCH  42  44
ENDBRANCH  26  42
ENDBRANCH  23  26
ENDBRANCH  21  22
BRANCH  21  46
ATOM     46  CB  THR A  10       2.023   6.126  22.595  0.00  0.00    +0.137 C 
ATOM     47  CG2 THR A  10       2.836   6.317  21.347  0.00  0.00    +0.034 C 
BRANCH  46  48
ATOM     48  OG1 THR A  10       2.618   5.058  23.352  0.00  0.00    -0.382 OA
ATOM     49  HG1 THR A  10       2.082   4.895  24.168  0.00  0.00    +0.210 HD
ENDBRANCH  46  48
ENDBRANCH  21  46
ENDBRANCH  19  21
ENDBRANCH  16  17
BRANCH  16  50
ATOM     50  CB  VAL A   9       1.445   6.689  27.899  0.00  0.00    +0.027 C 
ATOM     51  CG2 VAL A   9       0.740   6.185  29.160  0.00  0.00    +0.002 C 
ATOM     52  CG1 VAL A   9       2.595   7.600  28.292  0.00  0.00    +0.002 C 
ENDBRANCH  16  50
ENDBRANCH  13  16
ENDBRANCH  11  12
BRANCH  11  53
ATOM     53  CB  MET A   8      -4.005   6.331  26.652  0.00  0.00    +0.041 C 
BRANCH  53  54
ATOM     54  CG  MET A   8      -5.423   6.308  26.114  0.00  0.00    +0.060 C 
BRANCH  54  55
ATOM     55  SD  MET A   8      -6.562   7.259  27.137  0.00  0.00    -0.139 S 
ATOM     56  CE  MET A   8      -6.449   8.918  26.438  0.00  0.00    +0.069 C 
ENDBRANCH  54  55
ENDBRANCH  53  54
ENDBRANCH  11  53
ENDBRANCH   8  11
ENDBRANCH   5   7
ENDBRANCH   3   5
BRANCH   1  57
ATOM     57  CA  VAL A   6       0.489   2.152  26.057  0.00  0.00    +0.149 C 
BRANCH  57  60
ATOM     58  C   PHE A   5      -1.420   2.643  27.501  0.00  0.00    +0.241 C 
ATOM     59  O   PHE A   5      -1.223   3.866  27.416  0.00  0.00    -0.273 OA
ATOM     60  N   VAL A   6      -0.670   1.750  26.857  0.00  0.00    -0.297 N 
ATOM     61  H   VAL A   6      -0.914   0.741  26.924  0.00  0.00    +0.150 HD
BRANCH  58  62
ATOM     62  CA  PHE A   5      -2.601   2.103  28.315  0.00  0.00    +0.153 C 
BRANCH  62  64
ATOM     63  C   ALA A   4      -3.992   1.595  26.375  0.00  0.00    +0.241 C 
ATOM     64  N   PHE A   5      -3.439   1.198  27.505  0.00  0.00    -0.297 N 
ATOM     65  H   PHE A   5      -3.597   0.224  27.833  0.00  0.00    +0.150 HD
ATOM     66  O   ALA A   4      -3.929   2.761  25.975  0.00  0.00    -0.273 OA
BRANCH  63  67
ATOM     67  CA  ALA A   4      -4.680   0.498  25.548  0.00  0.00    +0.149 C 
ATOM     68  CB  ALA A   4      -6.124   0.273  26.017  0.00  0.00    +0.031 C 
BRANCH  67  70
ATOM     69  C   MET A   3      -2.678  -0.764  25.065  0.00  0.00    +0.241 C 
ATOM     70  N   ALA A   4      -3.890  -0.718  25.629  0.00  0.00    -0.297 N 
ATOM     71  H   ALA A   4      -4.266  -1.551  26.125  0.00  0.00    +0.150 HD
ATOM     72  O   MET A   3      -2.229   0.206  24.397  0.00  0.00    -0.273 OA
BRANCH  69  73
ATOM     73  CA  MET A   3      -1.848  -2.065  25.244  0.00  0.00    +0.149 C 
BRANCH  73  76
ATOM     74  C   PHE A   2      -1.562  -2.057  27.693  0.00  0.00    +0.241 C 
ATOM     75  O   PHE A   2      -1.116  -0.914  27.660  0.00  0.00    -0.273 OA
ATOM     76  N   MET A   3      -1.935  -2.699  26.595  0.00  0.00    -0.297 N 
ATOM     77  H   MET A   3      -2.298  -3.670  26.676  0.00  0.00    +0.150 HD
BRANCH  74  78
ATOM     78  CA  PHE A   2      -1.858  -2.741  29.023  0.00  0.00    +0.153 C 
BRANCH  78  81
ATOM     79  C   GLU A   1      -4.290  -2.695  28.898  0.00  0.00    +0.238 C 
ATOM     80  O   GLU A   1      -4.336  -1.441  28.986  0.00  0.00    -0.274 OA
ATOM     81  N   PHE A   2      -3.160  -3.393  28.928  0.00  0.00    -0.297 N 
ATOM     82  H   PHE A   2      -3.205  -4.431  28.883  0.00  0.00    +0.150 HD
BRANCH  79  83
ATOM     83  CA  GLU A   1      -5.544  -3.509  28.728  0.00  0.00    +0.145 C 
BRANCH  83  84
ATOM     84  N   GLU A   1      -5.293  -4.705  27.938  0.00  0.00    -0.238 NA
ATOM     85  H   GLU A   1      -5.246  -5.625  28.421  0.00  0.00    +0.142 HD
ENDBRANCH  83  84
BRANCH  83  86
ATOM     86  CB  GLU A   1      -6.104  -3.917  30.095  0.00  0.00    +0.038 C 
BRANCH  86  87
ATOM     87  CG  GLU A   1      -7.584  -4.307  30.022  0.00  0.00    +0.116 C 
BRANCH  87  88
ATOM     88  CD  GLU A   1      -7.993  -5.286  31.105  0.00  0.00    +0.365 C 
ATOM     89  OE2 GLU A   1      -7.170  -5.639  31.987  0.00  0.00    -0.246 OA
ATOM     90  OE1 GLU A   1      -9.138  -5.738  31.074  0.00  0.00    -0.246 OA
ENDBRANCH  87  88
ENDBRANCH  86  87
ENDBRANCH  83  86
ENDBRANCH  79  83
ENDBRANCH  78  81
BRANCH  78  91
ATOM     91  CB  PHE A   2      -0.756  -3.721  29.447  0.00  0.00    +0.055 C 
BRANCH  91  92
ATOM     92  CG  PHE A   2       0.598  -3.133  29.364  0.00  0.00    -0.020 A 
ATOM     93  CD2 PHE A   2       0.970  -2.087  30.225  0.00  0.00    -0.004 A 
ATOM     94  CE2 PHE A   2       2.240  -1.518  30.121  0.00  0.00    -0.000 A 
ATOM     95  CZ  PHE A   2       3.112  -1.953  29.150  0.00  0.00    -0.000 A 
ATOM     96  CE1 PHE A   2       2.761  -3.015  28.282  0.00  0.00    -0.000 A 
ATOM     97  CD1 PHE A   2       1.509  -3.571  28.371  0.00  0.00    -0.004 A 
ENDBRANCH  91  92
ENDBRANCH  78  91
ENDBRANCH  74  78
ENDBRANCH  73  76
BRANCH  73  98
ATOM     98  CB  MET A   3      -2.160  -3.112  24.139  0.00  0.00    +0.041 C 
BRANCH  98  99
ATOM     99  CG  MET A   3      -0.920  -3.975  23.673  0.00  0.00    +0.060 C 
BRANCH  99 100
ATOM    100  SD  MET A   3       0.698  -3.198  23.416  0.00  0.00    -0.139 S 
ATOM    101  CE  MET A   3       0.341  -1.879  22.227  0.00  0.00    +0.069 C 
ENDBRANCH  99 100
ENDBRANCH  98  99
ENDBRANCH  73  98
ENDBRANCH  69  73
ENDBRANCH  67  70
ENDBRANCH  63  67
ENDBRANCH  62  64
BRANCH  62 102
ATOM    102  CB  PHE A   5      -2.166   1.435  29.638  0.00  0.00    +0.055 C 
BRANCH 102 103
ATOM    103  CG  PHE A   5      -1.292   2.318  30.543  0.00  0.00    -0.020 A 
ATOM    104  CD2 PHE A   5      -0.068   1.844  31.041  0.00  0.00    -0.004 A 
ATOM    105  CE2 PHE A   5       0.728   2.627  31.914  0.00  0.00    -0.000 A 
ATOM    106  CZ  PHE A   5       0.321   3.910  32.250  0.00  0.00    -0.000 A 
ATOM    107  CE1 PHE A   5      -0.945   4.402  31.770  0.00  0.00    -0.000 A 
ATOM    108  CD1 PHE A   5      -1.722   3.581  30.934  0.00  0.00    -0.004 A 
ENDBRANCH 102 103
ENDBRANCH  62 102
ENDBRANCH  58  62
ENDBRANCH  57  60
BRANCH  57 109
ATOM    109  CB  VAL A   6       1.151   0.941  25.292  0.00  0.00    +0.027 C 
ATOM    110  CG2 VAL A   6       1.782  -0.037  26.273  0.00  0.00    +0.002 C 
ATOM    111  CG1 VAL A   6       2.213   1.452  24.352  0.00  0.00    +0.002 C 
ENDBRANCH  57 109
ENDBRANCH   1  57
TORSDOF 46
REMARK  Name = ../refined-set-2016/3hcm/3hcm_pocket.pdb
REMARK  94 active torsions:
REMARK  status: ('A' for Active; 'I' for Inactive)
REMARK    1  A    between atoms: _1  and  _3
REMARK    2  A    between atoms: _3  and  _4
REMARK    3  A    between atoms: _3  and  _6
REMARK    4  A    between atoms: _6  and  _7
REMARK    5  A    between atoms: _10  and  _12
REMARK    6  A    between atoms: _12  and  _13
REMARK    7  A    between atoms: _12  and  _15
REMARK    8  A    between atoms: _15  and  _16
REMARK    9  A    between atoms: _19  and  _21
REMARK   10  A    between atoms: _21  and  _22
REMARK   11  A    between atoms: _21  and  _24
REMARK   12  A    between atoms: _24  and  _25
REMARK   13  A    between atoms: _31  and  _33
REMARK   14  A    between atoms: _33  and  _34
REMARK   15  A    between atoms: _33  and  _36
REMARK   16  A    between atoms: _36  and  _37
REMARK   17  A    between atoms: _40  and  _42
REMARK   18  A    between atoms: _42  and  _43
REMARK   19  A    between atoms: _42  and  _45
REMARK   20  A    between atoms: _45  and  _46
REMARK   21  A    between atoms: _46  and  _47
REMARK   22  A    between atoms: _50  and  _52
REMARK   23  A    between atoms: _52  and  _53
REMARK   24  A    between atoms: _52  and  _55
REMARK   25  A    between atoms: _55  and  _56
REMARK   26  A    between atoms: _56  and  _57
REMARK   27  A    between atoms: _57  and  _58
REMARK   28  A    between atoms: _58  and  _59
REMARK   29  A    between atoms: _63  and  _65
REMARK   30  A    between atoms: _65  and  _66
REMARK   31  A    between atoms: _65  and  _68
REMARK   32  A    between atoms: _71  and  _73
REMARK   33  A    between atoms: _73  and  _74
REMARK   34  A    between atoms: _73  and  _76
REMARK   35  A    between atoms: _76  and  _77
REMARK   36  A    between atoms: _80  and  _82
REMARK   37  A    between atoms: _82  and  _83
REMARK   38  A    between atoms: _82  and  _85
REMARK   39  A    between atoms: _85  and  _86
REMARK   40  A    between atoms: _89  and  _91
REMARK   41  A    between atoms: _91  and  _92
REMARK   42  A    between atoms: _91  and  _94
REMARK   43  A    between atoms: _94  and  _95
REMARK   44  A    between atoms: _100  and  _102
REMARK   45  A    between atoms: _102  and  _103
REMARK   46  A    between atoms: _102  and  _105
REMARK   47  A    between atoms: _105  and  _106
REMARK   48  A    between atoms: _106  and  _107
REMARK   49  A    between atoms: _110  and  _112
REMARK   50  A    between atoms: _112  and  _113
REMARK   51  A    between atoms: _112  and  _115
REMARK   52  A    between atoms: _115  and  _116
REMARK   53  A    between atoms: _122  and  _124
REMARK   54  A    between atoms: _124  and  _125
REMARK   55  A    between atoms: _124  and  _127
REMARK   56  A    between atoms: _127  and  _128
REMARK   57  A    between atoms: _128  and  _129
REMARK   58  A    between atoms: _131  and  _133
REMARK   59  A    between atoms: _133  and  _134
REMARK   60  A    between atoms: _137  and  _139
REMARK   61  A    between atoms: _139  and  _140
REMARK   62  A    between atoms: _139  and  _142
REMARK   63  A    between atoms: _142  and  _143
REMARK   64  A    between atoms: _149  and  _151
REMARK   65  A    between atoms: _151  and  _152
REMARK   66  A    between atoms: _151  and  _154
REMARK   67  A    between atoms: _157  and  _159
REMARK   68  A    between atoms: _159  and  _160
REMARK   69  A    between atoms: _163  and  _165
REMARK   70  A    between atoms: _165  and  _166
REMARK   71  A    between atoms: _165  and  _168
REMARK   72  A    between atoms: _168  and  _169
REMARK   73  A    between atoms: _169  and  _170
REMARK   74  A    between atoms: _172  and  _174
REMARK   75  A    between atoms: _174  and  _175
REMARK   76  A    between atoms: _174  and  _177
REMARK   77  A    between atoms: _180  and  _182
REMARK   78  A    between atoms: _182  and  _183
REMARK   79  A    between atoms: _182  and  _185
REMARK   80  A    between atoms: _185  and  _186
REMARK   81  A    between atoms: _189  and  _191
REMARK   82  A    between atoms: _191  and  _192
REMARK   83  A    between atoms: _191  and  _194
REMARK   84  A    between atoms: _194  and  _195
REMARK   85  A    between atoms: _198  and  _200
REMARK   86  A    between atoms: _200  and  _201
REMARK   87  A    between atoms: _204  and  _206
REMARK   88  A    between atoms: _206  and  _207
REMARK   89  A    between atoms: _206  and  _209
REMARK   90  A    between atoms: _211  and  _213
REMARK   91  A    between atoms: _213  and  _214
REMARK   92  A    between atoms: _213  and  _216
REMARK   93  A    between atoms: _216  and  _217
REMARK   94  A    between atoms: _217  and  _218
REMARK                            x       y       z     vdW  Elec       q    Type
REMARK                         _______ _______ _______ _____ _____    ______ ____
ROOT
ATOM      1  CA  GLU A   1       0.475  15.679  21.270  0.00  0.00    +0.134 C 
ENDROOT
BRANCH   1   2
ATOM      2  N   GLU A   1       0.938  14.281  21.145  0.00  0.00    -0.239 NA
ATOM      3  H   GLU A   1       0.465  13.545  21.708  0.00  0.00    +0.142 HD
ENDBRANCH   1   2
BRANCH   1   4
ATOM      4  C   GLU A   1       1.598  16.696  21.595  0.00  0.00    +0.224 C 
ATOM      5  O   GLU A   1       1.336  17.896  21.726  0.00  0.00    -0.287 OA
ENDBRANCH   1   4
BRANCH   1   6
ATOM      6  CB  GLU A   1      -0.632  15.792  22.334  0.00  0.00    +0.037 C 
BRANCH   6   7
ATOM      7  CG  GLU A   1      -1.823  14.882  22.131  0.00  0.00    +0.116 C 
BRANCH   7   8
ATOM      8  CD  GLU A   1      -2.816  15.393  21.106  0.00  0.00    +0.365 C 
ATOM      9  OE2 GLU A   1      -2.943  16.633  20.936  0.00  0.00    -0.246 OA
ATOM     10  OE1 GLU A   1      -3.486  14.539  20.483  0.00  0.00    -0.246 OA
ENDBRANCH   7   8
ENDBRANCH   6   7
ENDBRANCH   1   6
TORSDOF 5
REMARK  Name = ../refined-set-2016/3hcm/3hcm_pocket.pdb
REMARK  94 active torsions:
REMARK  status: ('A' for Active; 'I' for Inactive)
REMARK    1  A    between atoms: _1  and  _3
REMARK    2  A    between atoms: _3  and  _4
REMARK    3  A    between atoms: _3  and  _6
REMARK    4  A    between atoms: _6  and  _7
REMARK    5  A    between atoms: _10  and  _12
REMARK    6  A    between atoms: _12  and  _13
REMARK    7  A    between atoms: _12  and  _15
REMARK    8  A    between atoms: _15  and  _16
REMARK    9  A    between atoms: _19  and  _21
REMARK   10  A    between atoms: _21  and  _22
REMARK   11  A    between atoms: _21  and  _24
REMARK   12  A    between atoms: _24  and  _25
REMARK   13  A    between atoms: _31  and  _33
REMARK   14  A    between atoms: _33  and  _34
REMARK   15  A    between atoms: _33  and  _36
REMARK   16  A    between atoms: _36  and  _37
REMARK   17  A    between atoms: _40  and  _42
REMARK   18  A    between atoms: _42  and  _43
REMARK   19  A    between atoms: _42  and  _45
REMARK   20  A    between atoms: _45  and  _46
REMARK   21  A    between atoms: _46  and  _47
REMARK   22  A    between atoms: _50  and  _52
REMARK   23  A    between atoms: _52  and  _53
REMARK   24  A    between atoms: _52  and  _55
REMARK   25  A    between atoms: _55  and  _56
REMARK   26  A    between atoms: _56  and  _57
REMARK   27  A    between atoms: _57  and  _58
REMARK   28  A    between atoms: _58  and  _59
REMARK   29  A    between atoms: _63  and  _65
REMARK   30  A    between atoms: _65  and  _66
REMARK   31  A    between atoms: _65  and  _68
REMARK   32  A    between atoms: _71  and  _73
REMARK   33  A    between atoms: _73  and  _74
REMARK   34  A    between atoms: _73  and  _76
REMARK   35  A    between atoms: _76  and  _77
REMARK   36  A    between atoms: _80  and  _82
REMARK   37  A    between atoms: _82  and  _83
REMARK   38  A    between atoms: _82  and  _85
REMARK   39  A    between atoms: _85  and  _86
REMARK   40  A    between atoms: _89  and  _91
REMARK   41  A    between atoms: _91  and  _92
REMARK   42  A    between atoms: _91  and  _94
REMARK   43  A    between atoms: _94  and  _95
REMARK   44  A    between atoms: _100  and  _102
REMARK   45  A    between atoms: _102  and  _103
REMARK   46  A    between atoms: _102  and  _105
REMARK   47  A    between atoms: _105  and  _106
REMARK   48  A    between atoms: _106  and  _107
REMARK   49  A    between atoms: _110  and  _112
REMARK   50  A    between atoms: _112  and  _113
REMARK   51  A    between atoms: _112  and  _115
REMARK   52  A    between atoms: _115  and  _116
REMARK   53  A    between atoms: _122  and  _124
REMARK   54  A    between atoms: _124  and  _125
REMARK   55  A    between atoms: _124  and  _127
REMARK   56  A    between atoms: _127  and  _128
REMARK   57  A    between atoms: _128  and  _129
REMARK   58  A    between atoms: _131  and  _133
REMARK   59  A    between atoms: _133  and  _134
REMARK   60  A    between atoms: _137  and  _139
REMARK   61  A    between atoms: _139  and  _140
REMARK   62  A    between atoms: _139  and  _142
REMARK   63  A    between atoms: _142  and  _143
REMARK   64  A    between atoms: _149  and  _151
REMARK   65  A    between atoms: _151  and  _152
REMARK   66  A    between atoms: _151  and  _154
REMARK   67  A    between atoms: _157  and  _159
REMARK   68  A    between atoms: _159  and  _160
REMARK   69  A    between atoms: _163  and  _165
REMARK   70  A    between atoms: _165  and  _166
REMARK   71  A    between atoms: _165  and  _168
REMARK   72  A    between atoms: _168  and  _169
REMARK   73  A    between atoms: _169  and  _170
REMARK   74  A    between atoms: _172  and  _174
REMARK   75  A    between atoms: _174  and  _175
REMARK   76  A    between atoms: _174  and  _177
REMARK   77  A    between atoms: _180  and  _182
REMARK   78  A    between atoms: _182  and  _183
REMARK   79  A    between atoms: _182  and  _185
REMARK   80  A    between atoms: _185  and  _186
REMARK   81  A    between atoms: _189  and  _191
REMARK   82  A    between atoms: _191  and  _192
REMARK   83  A    between atoms: _191  and  _194
REMARK   84  A    between atoms: _194  and  _195
REMARK   85  A    between atoms: _198  and  _200
REMARK   86  A    between atoms: _200  and  _201
REMARK   87  A    between atoms: _204  and  _206
REMARK   88  A    between atoms: _206  and  _207
REMARK   89  A    between atoms: _206  and  _209
REMARK   90  A    between atoms: _211  and  _213
REMARK   91  A    between atoms: _213  and  _214
REMARK   92  A    between atoms: _213  and  _216
REMARK   93  A    between atoms: _216  and  _217
REMARK   94  A    between atoms: _217  and  _218
REMARK                            x       y       z     vdW  Elec       q    Type
REMARK                         _______ _______ _______ _____ _____    ______ ____
ROOT
ATOM      1  O   HOH     1       2.725  12.993  28.119  0.00  0.00    +0.000 OA
ENDROOT
TORSDOF 0
REMARK  Name = ../refined-set-2016/3hcm/3hcm_pocket.pdb
REMARK  94 active torsions:
REMARK  status: ('A' for Active; 'I' for Inactive)
REMARK    1  A    between atoms: _1  and  _3
REMARK    2  A    between atoms: _3  and  _4
REMARK    3  A    between atoms: _3  and  _6
REMARK    4  A    between atoms: _6  and  _7
REMARK    5  A    between atoms: _10  and  _12
REMARK    6  A    between atoms: _12  and  _13
REMARK    7  A    between atoms: _12  and  _15
REMARK    8  A    between atoms: _15  and  _16
REMARK    9  A    between atoms: _19  and  _21
REMARK   10  A    between atoms: _21  and  _22
REMARK   11  A    between atoms: _21  and  _24
REMARK   12  A    between atoms: _24  and  _25
REMARK   13  A    between atoms: _31  and  _33
REMARK   14  A    between atoms: _33  and  _34
REMARK   15  A    between atoms: _33  and  _36
REMARK   16  A    between atoms: _36  and  _37
REMARK   17  A    between atoms: _40  and  _42
REMARK   18  A    between atoms: _42  and  _43
REMARK   19  A    between atoms: _42  and  _45
REMARK   20  A    between atoms: _45  and  _46
REMARK   21  A    between atoms: _46  and  _47
REMARK   22  A    between atoms: _50  and  _52
REMARK   23  A    between atoms: _52  and  _53
REMARK   24  A    between atoms: _52  and  _55
REMARK   25  A    between atoms: _55  and  _56
REMARK   26  A    between atoms: _56  and  _57
REMARK   27  A    between atoms: _57  and  _58
REMARK   28  A    between atoms: _58  and  _59
REMARK   29  A    between atoms: _63  and  _65
REMARK   30  A    between atoms: _65  and  _66
REMARK   31  A    between atoms: _65  and  _68
REMARK   32  A    between atoms: _71  and  _73
REMARK   33  A    between atoms: _73  and  _74
REMARK   34  A    between atoms: _73  and  _76
REMARK   35  A    between atoms: _76  and  _77
REMARK   36  A    between atoms: _80  and  _82
REMARK   37  A    between atoms: _82  and  _83
REMARK   38  A    between atoms: _82  and  _85
REMARK   39  A    between atoms: _85  and  _86
REMARK   40  A    between atoms: _89  and  _91
REMARK   41  A    between atoms: _91  and  _92
REMARK   42  A    between atoms: _91  and  _94
REMARK   43  A    between atoms: _94  and  _95
REMARK   44  A    between atoms: _100  and  _102
REMARK   45  A    between atoms: _102  and  _103
REMARK   46  A    between atoms: _102  and  _105
REMARK   47  A    between atoms: _105  and  _106
REMARK   48  A    between atoms: _106  and  _107
REMARK   49  A    between atoms: _110  and  _112
REMARK   50  A    between atoms: _112  and  _113
REMARK   51  A    between atoms: _112  and  _115
REMARK   52  A    between atoms: _115  and  _116
REMARK   53  A    between atoms: _122  and  _124
REMARK   54  A    between atoms: _124  and  _125
REMARK   55  A    between atoms: _124  and  _127
REMARK   56  A    between atoms: _127  and  _128
REMARK   57  A    between atoms: _128  and  _129
REMARK   58  A    between atoms: _131  and  _133
REMARK   59  A    between atoms: _133  and  _134
REMARK   60  A    between atoms: _137  and  _139
REMARK   61  A    between atoms: _139  and  _140
REMARK   62  A    between atoms: _139  and  _142
REMARK   63  A    between atoms: _142  and  _143
REMARK   64  A    between atoms: _149  and  _151
REMARK   65  A    between atoms: _151  and  _152
REMARK   66  A    between atoms: _151  and  _154
REMARK   67  A    between atoms: _157  and  _159
REMARK   68  A    between atoms: _159  and  _160
REMARK   69  A    between atoms: _163  and  _165
REMARK   70  A    between atoms: _165  and  _166
REMARK   71  A    between atoms: _165  and  _168
REMARK   72  A    between atoms: _168  and  _169
REMARK   73  A    between atoms: _169  and  _170
REMARK   74  A    between atoms: _172  and  _174
REMARK   75  A    between atoms: _174  and  _175
REMARK   76  A    between atoms: _174  and  _177
REMARK   77  A    between atoms: _180  and  _182
REMARK   78  A    between atoms: _182  and  _183
REMARK   79  A    between atoms: _182  and  _185
REMARK   80  A    between atoms: _185  and  _186
REMARK   81  A    between atoms: _189  and  _191
REMARK   82  A    between atoms: _191  and  _192
REMARK   83  A    between atoms: _191  and  _194
REMARK   84  A    between atoms: _194  and  _195
REMARK   85  A    between atoms: _198  and  _200
REMARK   86  A    between atoms: _200  and  _201
REMARK   87  A    between atoms: _204  and  _206
REMARK   88  A    between atoms: _206  and  _207
REMARK   89  A    between atoms: _206  and  _209
REMARK   90  A    between atoms: _211  and  _213
REMARK   91  A    between atoms: _213  and  _214
REMARK   92  A    between atoms: _213  and  _216
REMARK   93  A    between atoms: _216  and  _217
REMARK   94  A    between atoms: _217  and  _218
REMARK                            x       y       z     vdW  Elec       q    Type
REMARK                         _______ _______ _______ _____ _____    ______ ____
ROOT
ATOM      1  O   HOH     1      -9.046   1.411  28.280  0.00  0.00    +0.000 OA
ENDROOT
TORSDOF 0
REMARK  Name = ../refined-set-2016/3hcm/3hcm_pocket.pdb
REMARK  94 active torsions:
REMARK  status: ('A' for Active; 'I' for Inactive)
REMARK    1  A    between atoms: _1  and  _3
REMARK    2  A    between atoms: _3  and  _4
REMARK    3  A    between atoms: _3  and  _6
REMARK    4  A    between atoms: _6  and  _7
REMARK    5  A    between atoms: _10  and  _12
REMARK    6  A    between atoms: _12  and  _13
REMARK    7  A    between atoms: _12  and  _15
REMARK    8  A    between atoms: _15  and  _16
REMARK    9  A    between atoms: _19  and  _21
REMARK   10  A    between atoms: _21  and  _22
REMARK   11  A    between atoms: _21  and  _24
REMARK   12  A    between atoms: _24  and  _25
REMARK   13  A    between atoms: _31  and  _33
REMARK   14  A    between atoms: _33  and  _34
REMARK   15  A    between atoms: _33  and  _36
REMARK   16  A    between atoms: _36  and  _37
REMARK   17  A    between atoms: _40  and  _42
REMARK   18  A    between atoms: _42  and  _43
REMARK   19  A    between atoms: _42  and  _45
REMARK   20  A    between atoms: _45  and  _46
REMARK   21  A    between atoms: _46  and  _47
REMARK   22  A    between atoms: _50  and  _52
REMARK   23  A    between atoms: _52  and  _53
REMARK   24  A    between atoms: _52  and  _55
REMARK   25  A    between atoms: _55  and  _56
REMARK   26  A    between atoms: _56  and  _57
REMARK   27  A    between atoms: _57  and  _58
REMARK   28  A    between atoms: _58  and  _59
REMARK   29  A    between atoms: _63  and  _65
REMARK   30  A    between atoms: _65  and  _66
REMARK   31  A    between atoms: _65  and  _68
REMARK   32  A    between atoms: _71  and  _73
REMARK   33  A    between atoms: _73  and  _74
REMARK   34  A    between atoms: _73  and  _76
REMARK   35  A    between atoms: _76  and  _77
REMARK   36  A    between atoms: _80  and  _82
REMARK   37  A    between atoms: _82  and  _83
REMARK   38  A    between atoms: _82  and  _85
REMARK   39  A    between atoms: _85  and  _86
REMARK   40  A    between atoms: _89  and  _91
REMARK   41  A    between atoms: _91  and  _92
REMARK   42  A    between atoms: _91  and  _94
REMARK   43  A    between atoms: _94  and  _95
REMARK   44  A    between atoms: _100  and  _102
REMARK   45  A    between atoms: _102  and  _103
REMARK   46  A    between atoms: _102  and  _105
REMARK   47  A    between atoms: _105  and  _106
REMARK   48  A    between atoms: _106  and  _107
REMARK   49  A    between atoms: _110  and  _112
REMARK   50  A    between atoms: _112  and  _113
REMARK   51  A    between atoms: _112  and  _115
REMARK   52  A    between atoms: _115  and  _116
REMARK   53  A    between atoms: _122  and  _124
REMARK   54  A    between atoms: _124  and  _125
REMARK   55  A    between atoms: _124  and  _127
REMARK   56  A    between atoms: _127  and  _128
REMARK   57  A    between atoms: _128  and  _129
REMARK   58  A    between atoms: _131  and  _133
REMARK   59  A    between atoms: _133  and  _134
REMARK   60  A    between atoms: _137  and  _139
REMARK   61  A    between atoms: _139  and  _140
REMARK   62  A    between atoms: _139  and  _142
REMARK   63  A    between atoms: _142  and  _143
REMARK   64  A    between atoms: _149  and  _151
REMARK   65  A    between atoms: _151  and  _152
REMARK   66  A    between atoms: _151  and  _154
REMARK   67  A    between atoms: _157  and  _159
REMARK   68  A    between atoms: _159  and  _160
REMARK   69  A    between atoms: _163  and  _165
REMARK   70  A    between atoms: _165  and  _166
REMARK   71  A    between atoms: _165  and  _168
REMARK   72  A    between atoms: _168  and  _169
REMARK   73  A    between atoms: _169  and  _170
REMARK   74  A    between atoms: _172  and  _174
REMARK   75  A    between atoms: _174  and  _175
REMARK   76  A    between atoms: _174  and  _177
REMARK   77  A    between atoms: _180  and  _182
REMARK   78  A    between atoms: _182  and  _183
REMARK   79  A    between atoms: _182  and  _185
REMARK   80  A    between atoms: _185  and  _186
REMARK   81  A    between atoms: _189  and  _191
REMARK   82  A    between atoms: _191  and  _192
REMARK   83  A    between atoms: _191  and  _194
REMARK   84  A    between atoms: _194  and  _195
REMARK   85  A    between atoms: _198  and  _200
REMARK   86  A    between atoms: _200  and  _201
REMARK   87  A    between atoms: _204  and  _206
REMARK   88  A    between atoms: _206  and  _207
REMARK   89  A    between atoms: _206  and  _209
REMARK   90  A    between atoms: _211  and  _213
REMARK   91  A    between atoms: _213  and  _214
REMARK   92  A    between atoms: _213  and  _216
REMARK   93  A    between atoms: _216  and  _217
REMARK   94  A    between atoms: _217  and  _218
REMARK                            x       y       z     vdW  Elec       q    Type
REMARK                         _______ _______ _______ _____ _____    ______ ____
ROOT
ATOM      1  O   HOH     1      -1.467  16.718  38.163  0.00  0.00    +0.000 OA
ENDROOT
TORSDOF 0
REMARK  Name = ../refined-set-2016/3hcm/3hcm_pocket.pdb
REMARK  94 active torsions:
REMARK  status: ('A' for Active; 'I' for Inactive)
REMARK    1  A    between atoms: _1  and  _3
REMARK    2  A    between atoms: _3  and  _4
REMARK    3  A    between atoms: _3  and  _6
REMARK    4  A    between atoms: _6  and  _7
REMARK    5  A    between atoms: _10  and  _12
REMARK    6  A    between atoms: _12  and  _13
REMARK    7  A    between atoms: _12  and  _15
REMARK    8  A    between atoms: _15  and  _16
REMARK    9  A    between atoms: _19  and  _21
REMARK   10  A    between atoms: _21  and  _22
REMARK   11  A    between atoms: _21  and  _24
REMARK   12  A    between atoms: _24  and  _25
REMARK   13  A    between atoms: _31  and  _33
REMARK   14  A    between atoms: _33  and  _34
REMARK   15  A    between atoms: _33  and  _36
REMARK   16  A    between atoms: _36  and  _37
REMARK   17  A    between atoms: _40  and  _42
REMARK   18  A    between atoms: _42  and  _43
REMARK   19  A    between atoms: _42  and  _45
REMARK   20  A    between atoms: _45  and  _46
REMARK   21  A    between atoms: _46  and  _47
REMARK   22  A    between atoms: _50  and  _52
REMARK   23  A    between atoms: _52  and  _53
REMARK   24  A    between atoms: _52  and  _55
REMARK   25  A    between atoms: _55  and  _56
REMARK   26  A    between atoms: _56  and  _57
REMARK   27  A    between atoms: _57  and  _58
REMARK   28  A    between atoms: _58  and  _59
REMARK   29  A    between atoms: _63  and  _65
REMARK   30  A    between atoms: _65  and  _66
REMARK   31  A    between atoms: _65  and  _68
REMARK   32  A    between atoms: _71  and  _73
REMARK   33  A    between atoms: _73  and  _74
REMARK   34  A    between atoms: _73  and  _76
REMARK   35  A    between atoms: _76  and  _77
REMARK   36  A    between atoms: _80  and  _82
REMARK   37  A    between atoms: _82  and  _83
REMARK   38  A    between atoms: _82  and  _85
REMARK   39  A    between atoms: _85  and  _86
REMARK   40  A    between atoms: _89  and  _91
REMARK   41  A    between atoms: _91  and  _92
REMARK   42  A    between atoms: _91  and  _94
REMARK   43  A    between atoms: _94  and  _95
REMARK   44  A    between atoms: _100  and  _102
REMARK   45  A    between atoms: _102  and  _103
REMARK   46  A    between atoms: _102  and  _105
REMARK   47  A    between atoms: _105  and  _106
REMARK   48  A    between atoms: _106  and  _107
REMARK   49  A    between atoms: _110  and  _112
REMARK   50  A    between atoms: _112  and  _113
REMARK   51  A    between atoms: _112  and  _115
REMARK   52  A    between atoms: _115  and  _116
REMARK   53  A    between atoms: _122  and  _124
REMARK   54  A    between atoms: _124  and  _125
REMARK   55  A    between atoms: _124  and  _127
REMARK   56  A    between atoms: _127  and  _128
REMARK   57  A    between atoms: _128  and  _129
REMARK   58  A    between atoms: _131  and  _133
REMARK   59  A    between atoms: _133  and  _134
REMARK   60  A    between atoms: _137  and  _139
REMARK   61  A    between atoms: _139  and  _140
REMARK   62  A    between atoms: _139  and  _142
REMARK   63  A    between atoms: _142  and  _143
REMARK   64  A    between atoms: _149  and  _151
REMARK   65  A    between atoms: _151  and  _152
REMARK   66  A    between atoms: _151  and  _154
REMARK   67  A    between atoms: _157  and  _159
REMARK   68  A    between atoms: _159  and  _160
REMARK   69  A    between atoms: _163  and  _165
REMARK   70  A    between atoms: _165  and  _166
REMARK   71  A    between atoms: _165  and  _168
REMARK   72  A    between atoms: _168  and  _169
REMARK   73  A    between atoms: _169  and  _170
REMARK   74  A    between atoms: _172  and  _174
REMARK   75  A    between atoms: _174  and  _175
REMARK   76  A    between atoms: _174  and  _177
REMARK   77  A    between atoms: _180  and  _182
REMARK   78  A    between atoms: _182  and  _183
REMARK   79  A    between atoms: _182  and  _185
REMARK   80  A    between atoms: _185  and  _186
REMARK   81  A    between atoms: _189  and  _191
REMARK   82  A    between atoms: _191  and  _192
REMARK   83  A    between atoms: _191  and  _194
REMARK   84  A    between atoms: _194  and  _195
REMARK   85  A    between atoms: _198  and  _200
REMARK   86  A    between atoms: _200  and  _201
REMARK   87  A    between atoms: _204  and  _206
REMARK   88  A    between atoms: _206  and  _207
REMARK   89  A    between atoms: _206  and  _209
REMARK   90  A    between atoms: _211  and  _213
REMARK   91  A    between atoms: _213  and  _214
REMARK   92  A    between atoms: _213  and  _216
REMARK   93  A    between atoms: _216  and  _217
REMARK   94  A    between atoms: _217  and  _218
REMARK                            x       y       z     vdW  Elec       q    Type
REMARK                         _______ _______ _______ _____ _____    ______ ____
ROOT
ATOM      1  O   HOH     1      -3.818  10.128  25.939  0.00  0.00    +0.000 OA
ENDROOT
TORSDOF 0
REMARK  Name = ../refined-set-2016/3hcm/3hcm_pocket.pdb
REMARK  94 active torsions:
REMARK  status: ('A' for Active; 'I' for Inactive)
REMARK    1  A    between atoms: _1  and  _3
REMARK    2  A    between atoms: _3  and  _4
REMARK    3  A    between atoms: _3  and  _6
REMARK    4  A    between atoms: _6  and  _7
REMARK    5  A    between atoms: _10  and  _12
REMARK    6  A    between atoms: _12  and  _13
REMARK    7  A    between atoms: _12  and  _15
REMARK    8  A    between atoms: _15  and  _16
REMARK    9  A    between atoms: _19  and  _21
REMARK   10  A    between atoms: _21  and  _22
REMARK   11  A    between atoms: _21  and  _24
REMARK   12  A    between atoms: _24  and  _25
REMARK   13  A    between atoms: _31  and  _33
REMARK   14  A    between atoms: _33  and  _34
REMARK   15  A    between atoms: _33  and  _36
REMARK   16  A    between atoms: _36  and  _37
REMARK   17  A    between atoms: _40  and  _42
REMARK   18  A    between atoms: _42  and  _43
REMARK   19  A    between atoms: _42  and  _45
REMARK   20  A    between atoms: _45  and  _46
REMARK   21  A    between atoms: _46  and  _47
REMARK   22  A    between atoms: _50  and  _52
REMARK   23  A    between atoms: _52  and  _53
REMARK   24  A    between atoms: _52  and  _55
REMARK   25  A    between atoms: _55  and  _56
REMARK   26  A    between atoms: _56  and  _57
REMARK   27  A    between atoms: _57  and  _58
REMARK   28  A    between atoms: _58  and  _59
REMARK   29  A    between atoms: _63  and  _65
REMARK   30  A    between atoms: _65  and  _66
REMARK   31  A    between atoms: _65  and  _68
REMARK   32  A    between atoms: _71  and  _73
REMARK   33  A    between atoms: _73  and  _74
REMARK   34  A    between atoms: _73  and  _76
REMARK   35  A    between atoms: _76  and  _77
REMARK   36  A    between atoms: _80  and  _82
REMARK   37  A    between atoms: _82  and  _83
REMARK   38  A    between atoms: _82  and  _85
REMARK   39  A    between atoms: _85  and  _86
REMARK   40  A    between atoms: _89  and  _91
REMARK   41  A    between atoms: _91  and  _92
REMARK   42  A    between atoms: _91  and  _94
REMARK   43  A    between atoms: _94  and  _95
REMARK   44  A    between atoms: _100  and  _102
REMARK   45  A    between atoms: _102  and  _103
REMARK   46  A    between atoms: _102  and  _105
REMARK   47  A    between atoms: _105  and  _106
REMARK   48  A    between atoms: _106  and  _107
REMARK   49  A    between atoms: _110  and  _112
REMARK   50  A    between atoms: _112  and  _113
REMARK   51  A    between atoms: _112  and  _115
REMARK   52  A    between atoms: _115  and  _116
REMARK   53  A    between atoms: _122  and  _124
REMARK   54  A    between atoms: _124  and  _125
REMARK   55  A    between atoms: _124  and  _127
REMARK   56  A    between atoms: _127  and  _128
REMARK   57  A    between atoms: _128  and  _129
REMARK   58  A    between atoms: _131  and  _133
REMARK   59  A    between atoms: _133  and  _134
REMARK   60  A    between atoms: _137  and  _139
REMARK   61  A    between atoms: _139  and  _140
REMARK   62  A    between atoms: _139  and  _142
REMARK   63  A    between atoms: _142  and  _143
REMARK   64  A    between atoms: _149  and  _151
REMARK   65  A    between atoms: _151  and  _152
REMARK   66  A    between atoms: _151  and  _154
REMARK   67  A    between atoms: _157  and  _159
REMARK   68  A    between atoms: _159  and  _160
REMARK   69  A    between atoms: _163  and  _165
REMARK   70  A    between atoms: _165  and  _166
REMARK   71  A    between atoms: _165  and  _168
REMARK   72  A    between atoms: _168  and  _169
REMARK   73  A    between atoms: _169  and  _170
REMARK   74  A    between atoms: _172  and  _174
REMARK   75  A    between atoms: _174  and  _175
REMARK   76  A    between atoms: _174  and  _177
REMARK   77  A    between atoms: _180  and  _182
REMARK   78  A    between atoms: _182  and  _183
REMARK   79  A    between atoms: _182  and  _185
REMARK   80  A    between atoms: _185  and  _186
REMARK   81  A    between atoms: _189  and  _191
REMARK   82  A    between atoms: _191  and  _192
REMARK   83  A    between atoms: _191  and  _194
REMARK   84  A    between atoms: _194  and  _195
REMARK   85  A    between atoms: _198  and  _200
REMARK   86  A    between atoms: _200  and  _201
REMARK   87  A    between atoms: _204  and  _206
REMARK   88  A    between atoms: _206  and  _207
REMARK   89  A    between atoms: _206  and  _209
REMARK   90  A    between atoms: _211  and  _213
REMARK   91  A    between atoms: _213  and  _214
REMARK   92  A    between atoms: _213  and  _216
REMARK   93  A    between atoms: _216  and  _217
REMARK   94  A    between atoms: _217  and  _218
REMARK                            x       y       z     vdW  Elec       q    Type
REMARK                         _______ _______ _______ _____ _____    ______ ____
ROOT
ATOM      1  O   HOH     1       0.415  15.772  26.415  0.00  0.00    +0.000 OA
ENDROOT
TORSDOF 0
REMARK  Name = ../refined-set-2016/3hcm/3hcm_pocket.pdb
REMARK  94 active torsions:
REMARK  status: ('A' for Active; 'I' for Inactive)
REMARK    1  A    between atoms: _1  and  _3
REMARK    2  A    between atoms: _3  and  _4
REMARK    3  A    between atoms: _3  and  _6
REMARK    4  A    between atoms: _6  and  _7
REMARK    5  A    between atoms: _10  and  _12
REMARK    6  A    between atoms: _12  and  _13
REMARK    7  A    between atoms: _12  and  _15
REMARK    8  A    between atoms: _15  and  _16
REMARK    9  A    between atoms: _19  and  _21
REMARK   10  A    between atoms: _21  and  _22
REMARK   11  A    between atoms: _21  and  _24
REMARK   12  A    between atoms: _24  and  _25
REMARK   13  A    between atoms: _31  and  _33
REMARK   14  A    between atoms: _33  and  _34
REMARK   15  A    between atoms: _33  and  _36
REMARK   16  A    between atoms: _36  and  _37
REMARK   17  A    between atoms: _40  and  _42
REMARK   18  A    between atoms: _42  and  _43
REMARK   19  A    between atoms: _42  and  _45
REMARK   20  A    between atoms: _45  and  _46
REMARK   21  A    between atoms: _46  and  _47
REMARK   22  A    between atoms: _50  and  _52
REMARK   23  A    between atoms: _52  and  _53
REMARK   24  A    between atoms: _52  and  _55
REMARK   25  A    between atoms: _55  and  _56
REMARK   26  A    between atoms: _56  and  _57
REMARK   27  A    between atoms: _57  and  _58
REMARK   28  A    between atoms: _58  and  _59
REMARK   29  A    between atoms: _63  and  _65
REMARK   30  A    between atoms: _65  and  _66
REMARK   31  A    between atoms: _65  and  _68
REMARK   32  A    between atoms: _71  and  _73
REMARK   33  A    between atoms: _73  and  _74
REMARK   34  A    between atoms: _73  and  _76
REMARK   35  A    between atoms: _76  and  _77
REMARK   36  A    between atoms: _80  and  _82
REMARK   37  A    between atoms: _82  and  _83
REMARK   38  A    between atoms: _82  and  _85
REMARK   39  A    between atoms: _85  and  _86
REMARK   40  A    between atoms: _89  and  _91
REMARK   41  A    between atoms: _91  and  _92
REMARK   42  A    between atoms: _91  and  _94
REMARK   43  A    between atoms: _94  and  _95
REMARK   44  A    between atoms: _100  and  _102
REMARK   45  A    between atoms: _102  and  _103
REMARK   46  A    between atoms: _102  and  _105
REMARK   47  A    between atoms: _105  and  _106
REMARK   48  A    between atoms: _106  and  _107
REMARK   49  A    between atoms: _110  and  _112
REMARK   50  A    between atoms: _112  and  _113
REMARK   51  A    between atoms: _112  and  _115
REMARK   52  A    between atoms: _115  and  _116
REMARK   53  A    between atoms: _122  and  _124
REMARK   54  A    between atoms: _124  and  _125
REMARK   55  A    between atoms: _124  and  _127
REMARK   56  A    between atoms: _127  and  _128
REMARK   57  A    between atoms: _128  and  _129
REMARK   58  A    between atoms: _131  and  _133
REMARK   59  A    between atoms: _133  and  _134
REMARK   60  A    between atoms: _137  and  _139
REMARK   61  A    between atoms: _139  and  _140
REMARK   62  A    between atoms: _139  and  _142
REMARK   63  A    between atoms: _142  and  _143
REMARK   64  A    between atoms: _149  and  _151
REMARK   65  A    between atoms: _151  and  _152
REMARK   66  A    between atoms: _151  and  _154
REMARK   67  A    between atoms: _157  and  _159
REMARK   68  A    between atoms: _159  and  _160
REMARK   69  A    between atoms: _163  and  _165
REMARK   70  A    between atoms: _165  and  _166
REMARK   71  A    between atoms: _165  and  _168
REMARK   72  A    between atoms: _168  and  _169
REMARK   73  A    between atoms: _169  and  _170
REMARK   74  A    between atoms: _172  and  _174
REMARK   75  A    between atoms: _174  and  _175
REMARK   76  A    between atoms: _174  and  _177
REMARK   77  A    between atoms: _180  and  _182
REMARK   78  A    between atoms: _182  and  _183
REMARK   79  A    between atoms: _182  and  _185
REMARK   80  A    between atoms: _185  and  _186
REMARK   81  A    between atoms: _189  and  _191
REMARK   82  A    between atoms: _191  and  _192
REMARK   83  A    between atoms: _191  and  _194
REMARK   84  A    between atoms: _194  and  _195
REMARK   85  A    between atoms: _198  and  _200
REMARK   86  A    between atoms: _200  and  _201
REMARK   87  A    between atoms: _204  and  _206
REMARK   88  A    between atoms: _206  and  _207
REMARK   89  A    between atoms: _206  and  _209
REMARK   90  A    between atoms: _211  and  _213
REMARK   91  A    between atoms: _213  and  _214
REMARK   92  A    between atoms: _213  and  _216
REMARK   93  A    between atoms: _216  and  _217
REMARK   94  A    between atoms: _217  and  _218
REMARK                            x       y       z     vdW  Elec       q    Type
REMARK                         _______ _______ _______ _____ _____    ______ ____
ROOT
ATOM      1  O   HOH     1       0.618  12.268  34.819  0.00  0.00    +0.000 OA
ENDROOT
TORSDOF 0
REMARK  Name = ../refined-set-2016/3hcm/3hcm_pocket.pdb
REMARK  94 active torsions:
REMARK  status: ('A' for Active; 'I' for Inactive)
REMARK    1  A    between atoms: _1  and  _3
REMARK    2  A    between atoms: _3  and  _4
REMARK    3  A    between atoms: _3  and  _6
REMARK    4  A    between atoms: _6  and  _7
REMARK    5  A    between atoms: _10  and  _12
REMARK    6  A    between atoms: _12  and  _13
REMARK    7  A    between atoms: _12  and  _15
REMARK    8  A    between atoms: _15  and  _16
REMARK    9  A    between atoms: _19  and  _21
REMARK   10  A    between atoms: _21  and  _22
REMARK   11  A    between atoms: _21  and  _24
REMARK   12  A    between atoms: _24  and  _25
REMARK   13  A    between atoms: _31  and  _33
REMARK   14  A    between atoms: _33  and  _34
REMARK   15  A    between atoms: _33  and  _36
REMARK   16  A    between atoms: _36  and  _37
REMARK   17  A    between atoms: _40  and  _42
REMARK   18  A    between atoms: _42  and  _43
REMARK   19  A    between atoms: _42  and  _45
REMARK   20  A    between atoms: _45  and  _46
REMARK   21  A    between atoms: _46  and  _47
REMARK   22  A    between atoms: _50  and  _52
REMARK   23  A    between atoms: _52  and  _53
REMARK   24  A    between atoms: _52  and  _55
REMARK   25  A    between atoms: _55  and  _56
REMARK   26  A    between atoms: _56  and  _57
REMARK   27  A    between atoms: _57  and  _58
REMARK   28  A    between atoms: _58  and  _59
REMARK   29  A    between atoms: _63  and  _65
REMARK   30  A    between atoms: _65  and  _66
REMARK   31  A    between atoms: _65  and  _68
REMARK   32  A    between atoms: _71  and  _73
REMARK   33  A    between atoms: _73  and  _74
REMARK   34  A    between atoms: _73  and  _76
REMARK   35  A    between atoms: _76  and  _77
REMARK   36  A    between atoms: _80  and  _82
REMARK   37  A    between atoms: _82  and  _83
REMARK   38  A    between atoms: _82  and  _85
REMARK   39  A    between atoms: _85  and  _86
REMARK   40  A    between atoms: _89  and  _91
REMARK   41  A    between atoms: _91  and  _92
REMARK   42  A    between atoms: _91  and  _94
REMARK   43  A    between atoms: _94  and  _95
REMARK   44  A    between atoms: _100  and  _102
REMARK   45  A    between atoms: _102  and  _103
REMARK   46  A    between atoms: _102  and  _105
REMARK   47  A    between atoms: _105  and  _106
REMARK   48  A    between atoms: _106  and  _107
REMARK   49  A    between atoms: _110  and  _112
REMARK   50  A    between atoms: _112  and  _113
REMARK   51  A    between atoms: _112  and  _115
REMARK   52  A    between atoms: _115  and  _116
REMARK   53  A    between atoms: _122  and  _124
REMARK   54  A    between atoms: _124  and  _125
REMARK   55  A    between atoms: _124  and  _127
REMARK   56  A    between atoms: _127  and  _128
REMARK   57  A    between atoms: _128  and  _129
REMARK   58  A    between atoms: _131  and  _133
REMARK   59  A    between atoms: _133  and  _134
REMARK   60  A    between atoms: _137  and  _139
REMARK   61  A    between atoms: _139  and  _140
REMARK   62  A    between atoms: _139  and  _142
REMARK   63  A    between atoms: _142  and  _143
REMARK   64  A    between atoms: _149  and  _151
REMARK   65  A    between atoms: _151  and  _152
REMARK   66  A    between atoms: _151  and  _154
REMARK   67  A    between atoms: _157  and  _159
REMARK   68  A    between atoms: _159  and  _160
REMARK   69  A    between atoms: _163  and  _165
REMARK   70  A    between atoms: _165  and  _166
REMARK   71  A    between atoms: _165  and  _168
REMARK   72  A    between atoms: _168  and  _169
REMARK   73  A    between atoms: _169  and  _170
REMARK   74  A    between atoms: _172  and  _174
REMARK   75  A    between atoms: _174  and  _175
REMARK   76  A    between atoms: _174  and  _177
REMARK   77  A    between atoms: _180  and  _182
REMARK   78  A    between atoms: _182  and  _183
REMARK   79  A    between atoms: _182  and  _185
REMARK   80  A    between atoms: _185  and  _186
REMARK   81  A    between atoms: _189  and  _191
REMARK   82  A    between atoms: _191  and  _192
REMARK   83  A    between atoms: _191  and  _194
REMARK   84  A    between atoms: _194  and  _195
REMARK   85  A    between atoms: _198  and  _200
REMARK   86  A    between atoms: _200  and  _201
REMARK   87  A    between atoms: _204  and  _206
REMARK   88  A    between atoms: _206  and  _207
REMARK   89  A    between atoms: _206  and  _209
REMARK   90  A    between atoms: _211  and  _213
REMARK   91  A    between atoms: _213  and  _214
REMARK   92  A    between atoms: _213  and  _216
REMARK   93  A    between atoms: _216  and  _217
REMARK   94  A    between atoms: _217  and  _218
REMARK                            x       y       z     vdW  Elec       q    Type
REMARK                         _______ _______ _______ _____ _____    ______ ____
ROOT
ATOM      1  O   HOH     1      -2.095   7.733  33.276  0.00  0.00    +0.000 OA
ENDROOT
TORSDOF 0
REMARK  Name = ../refined-set-2016/3hcm/3hcm_pocket.pdb
REMARK  94 active torsions:
REMARK  status: ('A' for Active; 'I' for Inactive)
REMARK    1  A    between atoms: _1  and  _3
REMARK    2  A    between atoms: _3  and  _4
REMARK    3  A    between atoms: _3  and  _6
REMARK    4  A    between atoms: _6  and  _7
REMARK    5  A    between atoms: _10  and  _12
REMARK    6  A    between atoms: _12  and  _13
REMARK    7  A    between atoms: _12  and  _15
REMARK    8  A    between atoms: _15  and  _16
REMARK    9  A    between atoms: _19  and  _21
REMARK   10  A    between atoms: _21  and  _22
REMARK   11  A    between atoms: _21  and  _24
REMARK   12  A    between atoms: _24  and  _25
REMARK   13  A    between atoms: _31  and  _33
REMARK   14  A    between atoms: _33  and  _34
REMARK   15  A    between atoms: _33  and  _36
REMARK   16  A    between atoms: _36  and  _37
REMARK   17  A    between atoms: _40  and  _42
REMARK   18  A    between atoms: _42  and  _43
REMARK   19  A    between atoms: _42  and  _45
REMARK   20  A    between atoms: _45  and  _46
REMARK   21  A    between atoms: _46  and  _47
REMARK   22  A    between atoms: _50  and  _52
REMARK   23  A    between atoms: _52  and  _53
REMARK   24  A    between atoms: _52  and  _55
REMARK   25  A    between atoms: _55  and  _56
REMARK   26  A    between atoms: _56  and  _57
REMARK   27  A    between atoms: _57  and  _58
REMARK   28  A    between atoms: _58  and  _59
REMARK   29  A    between atoms: _63  and  _65
REMARK   30  A    between atoms: _65  and  _66
REMARK   31  A    between atoms: _65  and  _68
REMARK   32  A    between atoms: _71  and  _73
REMARK   33  A    between atoms: _73  and  _74
REMARK   34  A    between atoms: _73  and  _76
REMARK   35  A    between atoms: _76  and  _77
REMARK   36  A    between atoms: _80  and  _82
REMARK   37  A    between atoms: _82  and  _83
REMARK   38  A    between atoms: _82  and  _85
REMARK   39  A    between atoms: _85  and  _86
REMARK   40  A    between atoms: _89  and  _91
REMARK   41  A    between atoms: _91  and  _92
REMARK   42  A    between atoms: _91  and  _94
REMARK   43  A    between atoms: _94  and  _95
REMARK   44  A    between atoms: _100  and  _102
REMARK   45  A    between atoms: _102  and  _103
REMARK   46  A    between atoms: _102  and  _105
REMARK   47  A    between atoms: _105  and  _106
REMARK   48  A    between atoms: _106  and  _107
REMARK   49  A    between atoms: _110  and  _112
REMARK   50  A    between atoms: _112  and  _113
REMARK   51  A    between atoms: _112  and  _115
REMARK   52  A    between atoms: _115  and  _116
REMARK   53  A    between atoms: _122  and  _124
REMARK   54  A    between atoms: _124  and  _125
REMARK   55  A    between atoms: _124  and  _127
REMARK   56  A    between atoms: _127  and  _128
REMARK   57  A    between atoms: _128  and  _129
REMARK   58  A    between atoms: _131  and  _133
REMARK   59  A    between atoms: _133  and  _134
REMARK   60  A    between atoms: _137  and  _139
REMARK   61  A    between atoms: _139  and  _140
REMARK   62  A    between atoms: _139  and  _142
REMARK   63  A    between atoms: _142  and  _143
REMARK   64  A    between atoms: _149  and  _151
REMARK   65  A    between atoms: _151  and  _152
REMARK   66  A    between atoms: _151  and  _154
REMARK   67  A    between atoms: _157  and  _159
REMARK   68  A    between atoms: _159  and  _160
REMARK   69  A    between atoms: _163  and  _165
REMARK   70  A    between atoms: _165  and  _166
REMARK   71  A    between atoms: _165  and  _168
REMARK   72  A    between atoms: _168  and  _169
REMARK   73  A    between atoms: _169  and  _170
REMARK   74  A    between atoms: _172  and  _174
REMARK   75  A    between atoms: _174  and  _175
REMARK   76  A    between atoms: _174  and  _177
REMARK   77  A    between atoms: _180  and  _182
REMARK   78  A    between atoms: _182  and  _183
REMARK   79  A    between atoms: _182  and  _185
REMARK   80  A    between atoms: _185  and  _186
REMARK   81  A    between atoms: _189  and  _191
REMARK   82  A    between atoms: _191  and  _192
REMARK   83  A    between atoms: _191  and  _194
REMARK   84  A    between atoms: _194  and  _195
REMARK   85  A    between atoms: _198  and  _200
REMARK   86  A    between atoms: _200  and  _201
REMARK   87  A    between atoms: _204  and  _206
REMARK   88  A    between atoms: _206  and  _207
REMARK   89  A    between atoms: _206  and  _209
REMARK   90  A    between atoms: _211  and  _213
REMARK   91  A    between atoms: _213  and  _214
REMARK   92  A    between atoms: _213  and  _216
REMARK   93  A    between atoms: _216  and  _217
REMARK   94  A    between atoms: _217  and  _218
REMARK                            x       y       z     vdW  Elec       q    Type
REMARK                         _______ _______ _______ _____ _____    ______ ____
ROOT
ATOM      1  O   HOH     1       2.493  13.727  30.948  0.00  0.00    +0.000 OA
ENDROOT
TORSDOF 0
