REMARK  Name = ../refined-set-2016/2vwn/2vwn_pocket.pdb
REMARK  226 active torsions:
REMARK  status: ('A' for Active; 'I' for Inactive)
REMARK    1  A    between atoms: _1  and  _5
REMARK    2  A    between atoms: _5  and  _6
REMARK    3  A    between atoms: _5  and  _8
REMARK    4  A    between atoms: _8  and  _9
REMARK    5  A    between atoms: _12  and  _14
REMARK    6  A    between atoms: _14  and  _15
REMARK    7  A    between atoms: _14  and  _17
REMARK    8  A    between atoms: _20  and  _22
REMARK    9  A    between atoms: _22  and  _23
REMARK   10  A    between atoms: _22  and  _25
REMARK   11  A    between atoms: _25  and  _26
REMARK   12  A    between atoms: _31  and  _33
REMARK   13  A    between atoms: _33  and  _34
REMARK   14  A    between atoms: _33  and  _36
REMARK   15  A    between atoms: _36  and  _37
REMARK   16  A    between atoms: _37  and  _38
REMARK   17  A    between atoms: _43  and  _45
REMARK   18  A    between atoms: _45  and  _46
REMARK   19  A    between atoms: _45  and  _48
REMARK   20  A    between atoms: _48  and  _49
REMARK   21  A    between atoms: _52  and  _54
REMARK   22  A    between atoms: _54  and  _55
REMARK   23  A    between atoms: _54  and  _57
REMARK   24  A    between atoms: _57  and  _58
REMARK   25  A    between atoms: _58  and  _59
REMARK   26  A    between atoms: _59  and  _60
REMARK   27  A    between atoms: _60  and  _61
REMARK   28  A    between atoms: _65  and  _67
REMARK   29  A    between atoms: _67  and  _68
REMARK   30  A    between atoms: _67  and  _70
REMARK   31  A    between atoms: _70  and  _71
REMARK   32  A    between atoms: _71  and  _72
REMARK   33  A    between atoms: _75  and  _77
REMARK   34  A    between atoms: _77  and  _78
REMARK   35  A    between atoms: _77  and  _80
REMARK   36  A    between atoms: _80  and  _81
REMARK   37  A    between atoms: _84  and  _86
REMARK   38  A    between atoms: _86  and  _87
REMARK   39  A    between atoms: _86  and  _89
REMARK   40  A    between atoms: _89  and  _90
REMARK   41  A    between atoms: _95  and  _96
REMARK   42  A    between atoms: _98  and  _100
REMARK   43  A    between atoms: _100  and  _101
REMARK   44  A    between atoms: _100  and  _103
REMARK   45  A    between atoms: _103  and  _104
REMARK   46  A    between atoms: _107  and  _109
REMARK   47  A    between atoms: _109  and  _110
REMARK   48  A    between atoms: _109  and  _112
REMARK   49  A    between atoms: _112  and  _113
REMARK   50  A    between atoms: _116  and  _118
REMARK   51  A    between atoms: _118  and  _119
REMARK   52  A    between atoms: _118  and  _121
REMARK   53  A    between atoms: _124  and  _126
REMARK   54  A    between atoms: _126  and  _127
REMARK   55  A    between atoms: _126  and  _129
REMARK   56  A    between atoms: _129  and  _130
REMARK   57  A    between atoms: _130  and  _131
REMARK   58  A    between atoms: _131  and  _132
REMARK   59  A    between atoms: _141  and  _143
REMARK   60  A    between atoms: _143  and  _144
REMARK   61  A    between atoms: _143  and  _146
REMARK   62  A    between atoms: _146  and  _147
REMARK   63  A    between atoms: _152  and  _154
REMARK   64  A    between atoms: _154  and  _155
REMARK   65  A    between atoms: _154  and  _157
REMARK   66  A    between atoms: _157  and  _158
REMARK   67  A    between atoms: _158  and  _159
REMARK   68  A    between atoms: _162  and  _164
REMARK   69  A    between atoms: _164  and  _165
REMARK   70  A    between atoms: _164  and  _167
REMARK   71  A    between atoms: _167  and  _168
REMARK   72  A    between atoms: _168  and  _169
REMARK   73  A    between atoms: _169  and  _170
REMARK   74  A    between atoms: _170  and  _171
REMARK   75  A    between atoms: _175  and  _177
REMARK   76  A    between atoms: _177  and  _178
REMARK   77  A    between atoms: _180  and  _182
REMARK   78  A    between atoms: _182  and  _183
REMARK   79  A    between atoms: _182  and  _185
REMARK   80  A    between atoms: _185  and  _186
REMARK   81  A    between atoms: _186  and  _187
REMARK   82  A    between atoms: _192  and  _194
REMARK   83  A    between atoms: _194  and  _195
REMARK   84  A    between atoms: _194  and  _197
REMARK   85  A    between atoms: _200  and  _202
REMARK   86  A    between atoms: _202  and  _203
REMARK   87  A    between atoms: _202  and  _205
REMARK   88  A    between atoms: _205  and  _206
REMARK   89  A    between atoms: _208  and  _210
REMARK   90  A    between atoms: _210  and  _211
REMARK   91  A    between atoms: _210  and  _213
REMARK   92  A    between atoms: _213  and  _214
REMARK   93  A    between atoms: _216  and  _218
REMARK   94  A    between atoms: _218  and  _219
REMARK   95  A    between atoms: _218  and  _221
REMARK   96  A    between atoms: _221  and  _222
REMARK   97  A    between atoms: _228  and  _230
REMARK   98  A    between atoms: _230  and  _231
REMARK   99  A    between atoms: _230  and  _233
REMARK  100  A    between atoms: _233  and  _234
REMARK  101  A    between atoms: _237  and  _239
REMARK  102  A    between atoms: _239  and  _240
REMARK  103  A    between atoms: _239  and  _242
REMARK  104  A    between atoms: _242  and  _243
REMARK  105  A    between atoms: _246  and  _248
REMARK  106  A    between atoms: _248  and  _249
REMARK  107  A    between atoms: _248  and  _251
REMARK  108  A    between atoms: _251  and  _252
REMARK  109  A    between atoms: _255  and  _257
REMARK  110  A    between atoms: _257  and  _258
REMARK  111  A    between atoms: _257  and  _260
REMARK  112  A    between atoms: _260  and  _261
REMARK  113  A    between atoms: _261  and  _262
REMARK  114  A    between atoms: _264  and  _266
REMARK  115  A    between atoms: _266  and  _267
REMARK  116  A    between atoms: _266  and  _269
REMARK  117  A    between atoms: _269  and  _270
REMARK  118  A    between atoms: _276  and  _278
REMARK  119  A    between atoms: _278  and  _279
REMARK  120  A    between atoms: _278  and  _281
REMARK  121  A    between atoms: _283  and  _285
REMARK  122  A    between atoms: _285  and  _286
REMARK  123  A    between atoms: _289  and  _291
REMARK  124  A    between atoms: _291  and  _292
REMARK  125  A    between atoms: _294  and  _296
REMARK  126  A    between atoms: _296  and  _297
REMARK  127  A    between atoms: _296  and  _299
REMARK  128  A    between atoms: _299  and  _300
REMARK  129  A    between atoms: _300  and  _301
REMARK  130  A    between atoms: _304  and  _306
REMARK  131  A    between atoms: _306  and  _307
REMARK  132  A    between atoms: _306  and  _309
REMARK  133  A    between atoms: _309  and  _310
REMARK  134  A    between atoms: _313  and  _315
REMARK  135  A    between atoms: _315  and  _316
REMARK  136  A    between atoms: _319  and  _321
REMARK  137  A    between atoms: _321  and  _322
REMARK  138  A    between atoms: _321  and  _324
REMARK  139  A    between atoms: _324  and  _325
REMARK  140  A    between atoms: _325  and  _448
REMARK  141  A    between atoms: _326  and  _328
REMARK  142  A    between atoms: _328  and  _329
REMARK  143  A    between atoms: _328  and  _331
REMARK  144  A    between atoms: _331  and  _332
REMARK  145  A    between atoms: _332  and  _333
REMARK  146  A    between atoms: _338  and  _340
REMARK  147  A    between atoms: _340  and  _341
REMARK  148  A    between atoms: _343  and  _345
REMARK  149  A    between atoms: _345  and  _346
REMARK  150  A    between atoms: _345  and  _348
REMARK  151  A    between atoms: _348  and  _349
REMARK  152  A    between atoms: _352  and  _354
REMARK  153  A    between atoms: _354  and  _355
REMARK  154  A    between atoms: _354  and  _357
REMARK  155  A    between atoms: _357  and  _358
REMARK  156  A    between atoms: _360  and  _362
REMARK  157  A    between atoms: _362  and  _363
REMARK  158  A    between atoms: _365  and  _367
REMARK  159  A    between atoms: _367  and  _368
REMARK  160  A    between atoms: _370  and  _372
REMARK  161  A    between atoms: _372  and  _373
REMARK  162  A    between atoms: _372  and  _375
REMARK  163  A    between atoms: _375  and  _376
REMARK  164  A    between atoms: _381  and  _383
REMARK  165  A    between atoms: _383  and  _384
REMARK  166  A    between atoms: _383  and  _386
REMARK  167  A    between atoms: _386  and  _387
REMARK  168  A    between atoms: _390  and  _392
REMARK  169  A    between atoms: _392  and  _393
REMARK  170  A    between atoms: _392  and  _395
REMARK  171  A    between atoms: _398  and  _400
REMARK  172  A    between atoms: _400  and  _401
REMARK  173  A    between atoms: _400  and  _403
REMARK  174  A    between atoms: _403  and  _404
REMARK  175  A    between atoms: _406  and  _408
REMARK  176  A    between atoms: _408  and  _409
REMARK  177  A    between atoms: _408  and  _411
REMARK  178  A    between atoms: _411  and  _412
REMARK  179  A    between atoms: _422  and  _424
REMARK  180  A    between atoms: _424  and  _425
REMARK  181  A    between atoms: _427  and  _429
REMARK  182  A    between atoms: _429  and  _430
REMARK  183  A    between atoms: _429  and  _432
REMARK  184  A    between atoms: _432  and  _433
REMARK  185  A    between atoms: _433  and  _434
REMARK  186  A    between atoms: _437  and  _439
REMARK  187  A    between atoms: _439  and  _440
REMARK  188  A    between atoms: _442  and  _444
REMARK  189  A    between atoms: _444  and  _445
REMARK  190  A    between atoms: _444  and  _447
REMARK  191  A    between atoms: _447  and  _448
REMARK  192  A    between atoms: _449  and  _451
REMARK  193  A    between atoms: _451  and  _452
REMARK  194  A    between atoms: _455  and  _457
REMARK  195  A    between atoms: _457  and  _458
REMARK  196  A    between atoms: _457  and  _460
REMARK  197  A    between atoms: _460  and  _461
REMARK  198  A    between atoms: _461  and  _462
REMARK  199  A    between atoms: _462  and  _463
REMARK  200  A    between atoms: _472  and  _474
REMARK  201  A    between atoms: _474  and  _475
REMARK  202  A    between atoms: _474  and  _477
REMARK  203  A    between atoms: _477  and  _478
REMARK  204  A    between atoms: _478  and  _479
REMARK  205  A    between atoms: _479  and  _480
REMARK  206  A    between atoms: _480  and  _481
REMARK  207  A    between atoms: _485  and  _487
REMARK  208  A    between atoms: _487  and  _488
REMARK  209  A    between atoms: _487  and  _490
REMARK  210  A    between atoms: _490  and  _491
REMARK  211  A    between atoms: _496  and  _497
REMARK  212  A    between atoms: _499  and  _501
REMARK  213  A    between atoms: _501  and  _502
REMARK  214  A    between atoms: _504  and  _506
REMARK  215  A    between atoms: _506  and  _507
REMARK  216  A    between atoms: _506  and  _509
REMARK  217  A    between atoms: _509  and  _510
REMARK  218  A    between atoms: _513  and  _515
REMARK  219  A    between atoms: _515  and  _516
REMARK  220  A    between atoms: _515  and  _518
REMARK  221  A    between atoms: _518  and  _519
REMARK  222  A    between atoms: _524  and  _525
REMARK  223  A    between atoms: _527  and  _529
REMARK  224  A    between atoms: _529  and  _530
REMARK  225  A    between atoms: _529  and  _532
REMARK  226  A    between atoms: _532  and  _533
REMARK                            x       y       z     vdW  Elec       q    Type
REMARK                         _______ _______ _______ _____ _____    ______ ____
ROOT
ATOM      1  C   ILE A   1      20.191  71.667   7.958  0.00  0.00    +0.202 C 
ATOM      2  N   VAL A   2      19.329  71.346   8.914  0.00  0.00    -0.301 N 
ATOM      3  H   VAL A   2      18.984  70.366   8.964  0.00  0.00    +0.150 HD
ATOM      4  O   ILE A   1      20.584  72.823   7.751  0.00  0.00    -0.277 OA
ENDROOT
BRANCH   1   5
ATOM      5  CA  ILE A   1      20.644  70.527   7.074  0.00  0.00    +0.013 C 
BRANCH   5   6
ATOM      6  N   ILE A   1      20.267  70.865   5.659  0.00  0.00    +0.387 N 
ATOM      7  H1  ILE A   1      19.236  70.984   5.595  0.00  0.00    -0.089 HD
ATOM      8  H2  ILE A   1      20.737  71.749   5.378  0.00  0.00    -0.089 HD
ATOM      9  H3  ILE A   1      20.568  70.095   5.028  0.00  0.00    -0.089 HD
ENDBRANCH   5   6
BRANCH   5  10
ATOM     10  CB  ILE A   1      22.169  70.318   7.241  0.00  0.00    -0.011 C 
ATOM     11  CG2 ILE A   1      22.536  70.020   8.680  0.00  0.00    -0.002 C 
BRANCH  10  12
ATOM     12  CG1 ILE A   1      22.679  69.171   6.374  0.00  0.00    -0.002 C 
ATOM     13  CD1 ILE A   1      22.261  67.796   6.845  0.00  0.00    -0.000 C 
ENDBRANCH  10  12
ENDBRANCH   5  10
ENDBRANCH   1   5
BRANCH   2  14
ATOM     14  CA  VAL A   2      18.843  72.308   9.899  0.00  0.00    +0.137 C 
BRANCH  14  15
ATOM     15  CB  VAL A   2      17.427  71.943  10.337  0.00  0.00    +0.026 C 
ATOM     16  CG2 VAL A   2      16.923  72.914  11.420  0.00  0.00    +0.002 C 
ATOM     17  CG1 VAL A   2      16.510  71.963   9.131  0.00  0.00    +0.002 C 
ENDBRANCH  14  15
BRANCH  14  18
ATOM     18  C   VAL A   2      19.770  72.209  11.089  0.00  0.00    +0.227 C 
ATOM     19  O   VAL A   2      20.036  71.119  11.578  0.00  0.00    -0.286 OA
ENDBRANCH  14  18
ENDBRANCH   2  14
TORSDOF 7
REMARK  Name = ../refined-set-2016/2vwn/2vwn_pocket.pdb
REMARK  226 active torsions:
REMARK  status: ('A' for Active; 'I' for Inactive)
REMARK    1  A    between atoms: _1  and  _5
REMARK    2  A    between atoms: _5  and  _6
REMARK    3  A    between atoms: _5  and  _8
REMARK    4  A    between atoms: _8  and  _9
REMARK    5  A    between atoms: _12  and  _14
REMARK    6  A    between atoms: _14  and  _15
REMARK    7  A    between atoms: _14  and  _17
REMARK    8  A    between atoms: _20  and  _22
REMARK    9  A    between atoms: _22  and  _23
REMARK   10  A    between atoms: _22  and  _25
REMARK   11  A    between atoms: _25  and  _26
REMARK   12  A    between atoms: _31  and  _33
REMARK   13  A    between atoms: _33  and  _34
REMARK   14  A    between atoms: _33  and  _36
REMARK   15  A    between atoms: _36  and  _37
REMARK   16  A    between atoms: _37  and  _38
REMARK   17  A    between atoms: _43  and  _45
REMARK   18  A    between atoms: _45  and  _46
REMARK   19  A    between atoms: _45  and  _48
REMARK   20  A    between atoms: _48  and  _49
REMARK   21  A    between atoms: _52  and  _54
REMARK   22  A    between atoms: _54  and  _55
REMARK   23  A    between atoms: _54  and  _57
REMARK   24  A    between atoms: _57  and  _58
REMARK   25  A    between atoms: _58  and  _59
REMARK   26  A    between atoms: _59  and  _60
REMARK   27  A    between atoms: _60  and  _61
REMARK   28  A    between atoms: _65  and  _67
REMARK   29  A    between atoms: _67  and  _68
REMARK   30  A    between atoms: _67  and  _70
REMARK   31  A    between atoms: _70  and  _71
REMARK   32  A    between atoms: _71  and  _72
REMARK   33  A    between atoms: _75  and  _77
REMARK   34  A    between atoms: _77  and  _78
REMARK   35  A    between atoms: _77  and  _80
REMARK   36  A    between atoms: _80  and  _81
REMARK   37  A    between atoms: _84  and  _86
REMARK   38  A    between atoms: _86  and  _87
REMARK   39  A    between atoms: _86  and  _89
REMARK   40  A    between atoms: _89  and  _90
REMARK   41  A    between atoms: _95  and  _96
REMARK   42  A    between atoms: _98  and  _100
REMARK   43  A    between atoms: _100  and  _101
REMARK   44  A    between atoms: _100  and  _103
REMARK   45  A    between atoms: _103  and  _104
REMARK   46  A    between atoms: _107  and  _109
REMARK   47  A    between atoms: _109  and  _110
REMARK   48  A    between atoms: _109  and  _112
REMARK   49  A    between atoms: _112  and  _113
REMARK   50  A    between atoms: _116  and  _118
REMARK   51  A    between atoms: _118  and  _119
REMARK   52  A    between atoms: _118  and  _121
REMARK   53  A    between atoms: _124  and  _126
REMARK   54  A    between atoms: _126  and  _127
REMARK   55  A    between atoms: _126  and  _129
REMARK   56  A    between atoms: _129  and  _130
REMARK   57  A    between atoms: _130  and  _131
REMARK   58  A    between atoms: _131  and  _132
REMARK   59  A    between atoms: _141  and  _143
REMARK   60  A    between atoms: _143  and  _144
REMARK   61  A    between atoms: _143  and  _146
REMARK   62  A    between atoms: _146  and  _147
REMARK   63  A    between atoms: _152  and  _154
REMARK   64  A    between atoms: _154  and  _155
REMARK   65  A    between atoms: _154  and  _157
REMARK   66  A    between atoms: _157  and  _158
REMARK   67  A    between atoms: _158  and  _159
REMARK   68  A    between atoms: _162  and  _164
REMARK   69  A    between atoms: _164  and  _165
REMARK   70  A    between atoms: _164  and  _167
REMARK   71  A    between atoms: _167  and  _168
REMARK   72  A    between atoms: _168  and  _169
REMARK   73  A    between atoms: _169  and  _170
REMARK   74  A    between atoms: _170  and  _171
REMARK   75  A    between atoms: _175  and  _177
REMARK   76  A    between atoms: _177  and  _178
REMARK   77  A    between atoms: _180  and  _182
REMARK   78  A    between atoms: _182  and  _183
REMARK   79  A    between atoms: _182  and  _185
REMARK   80  A    between atoms: _185  and  _186
REMARK   81  A    between atoms: _186  and  _187
REMARK   82  A    between atoms: _192  and  _194
REMARK   83  A    between atoms: _194  and  _195
REMARK   84  A    between atoms: _194  and  _197
REMARK   85  A    between atoms: _200  and  _202
REMARK   86  A    between atoms: _202  and  _203
REMARK   87  A    between atoms: _202  and  _205
REMARK   88  A    between atoms: _205  and  _206
REMARK   89  A    between atoms: _208  and  _210
REMARK   90  A    between atoms: _210  and  _211
REMARK   91  A    between atoms: _210  and  _213
REMARK   92  A    between atoms: _213  and  _214
REMARK   93  A    between atoms: _216  and  _218
REMARK   94  A    between atoms: _218  and  _219
REMARK   95  A    between atoms: _218  and  _221
REMARK   96  A    between atoms: _221  and  _222
REMARK   97  A    between atoms: _228  and  _230
REMARK   98  A    between atoms: _230  and  _231
REMARK   99  A    between atoms: _230  and  _233
REMARK  100  A    between atoms: _233  and  _234
REMARK  101  A    between atoms: _237  and  _239
REMARK  102  A    between atoms: _239  and  _240
REMARK  103  A    between atoms: _239  and  _242
REMARK  104  A    between atoms: _242  and  _243
REMARK  105  A    between atoms: _246  and  _248
REMARK  106  A    between atoms: _248  and  _249
REMARK  107  A    between atoms: _248  and  _251
REMARK  108  A    between atoms: _251  and  _252
REMARK  109  A    between atoms: _255  and  _257
REMARK  110  A    between atoms: _257  and  _258
REMARK  111  A    between atoms: _257  and  _260
REMARK  112  A    between atoms: _260  and  _261
REMARK  113  A    between atoms: _261  and  _262
REMARK  114  A    between atoms: _264  and  _266
REMARK  115  A    between atoms: _266  and  _267
REMARK  116  A    between atoms: _266  and  _269
REMARK  117  A    between atoms: _269  and  _270
REMARK  118  A    between atoms: _276  and  _278
REMARK  119  A    between atoms: _278  and  _279
REMARK  120  A    between atoms: _278  and  _281
REMARK  121  A    between atoms: _283  and  _285
REMARK  122  A    between atoms: _285  and  _286
REMARK  123  A    between atoms: _289  and  _291
REMARK  124  A    between atoms: _291  and  _292
REMARK  125  A    between atoms: _294  and  _296
REMARK  126  A    between atoms: _296  and  _297
REMARK  127  A    between atoms: _296  and  _299
REMARK  128  A    between atoms: _299  and  _300
REMARK  129  A    between atoms: _300  and  _301
REMARK  130  A    between atoms: _304  and  _306
REMARK  131  A    between atoms: _306  and  _307
REMARK  132  A    between atoms: _306  and  _309
REMARK  133  A    between atoms: _309  and  _310
REMARK  134  A    between atoms: _313  and  _315
REMARK  135  A    between atoms: _315  and  _316
REMARK  136  A    between atoms: _319  and  _321
REMARK  137  A    between atoms: _321  and  _322
REMARK  138  A    between atoms: _321  and  _324
REMARK  139  A    between atoms: _324  and  _325
REMARK  140  A    between atoms: _325  and  _448
REMARK  141  A    between atoms: _326  and  _328
REMARK  142  A    between atoms: _328  and  _329
REMARK  143  A    between atoms: _328  and  _331
REMARK  144  A    between atoms: _331  and  _332
REMARK  145  A    between atoms: _332  and  _333
REMARK  146  A    between atoms: _338  and  _340
REMARK  147  A    between atoms: _340  and  _341
REMARK  148  A    between atoms: _343  and  _345
REMARK  149  A    between atoms: _345  and  _346
REMARK  150  A    between atoms: _345  and  _348
REMARK  151  A    between atoms: _348  and  _349
REMARK  152  A    between atoms: _352  and  _354
REMARK  153  A    between atoms: _354  and  _355
REMARK  154  A    between atoms: _354  and  _357
REMARK  155  A    between atoms: _357  and  _358
REMARK  156  A    between atoms: _360  and  _362
REMARK  157  A    between atoms: _362  and  _363
REMARK  158  A    between atoms: _365  and  _367
REMARK  159  A    between atoms: _367  and  _368
REMARK  160  A    between atoms: _370  and  _372
REMARK  161  A    between atoms: _372  and  _373
REMARK  162  A    between atoms: _372  and  _375
REMARK  163  A    between atoms: _375  and  _376
REMARK  164  A    between atoms: _381  and  _383
REMARK  165  A    between atoms: _383  and  _384
REMARK  166  A    between atoms: _383  and  _386
REMARK  167  A    between atoms: _386  and  _387
REMARK  168  A    between atoms: _390  and  _392
REMARK  169  A    between atoms: _392  and  _393
REMARK  170  A    between atoms: _392  and  _395
REMARK  171  A    between atoms: _398  and  _400
REMARK  172  A    between atoms: _400  and  _401
REMARK  173  A    between atoms: _400  and  _403
REMARK  174  A    between atoms: _403  and  _404
REMARK  175  A    between atoms: _406  and  _408
REMARK  176  A    between atoms: _408  and  _409
REMARK  177  A    between atoms: _408  and  _411
REMARK  178  A    between atoms: _411  and  _412
REMARK  179  A    between atoms: _422  and  _424
REMARK  180  A    between atoms: _424  and  _425
REMARK  181  A    between atoms: _427  and  _429
REMARK  182  A    between atoms: _429  and  _430
REMARK  183  A    between atoms: _429  and  _432
REMARK  184  A    between atoms: _432  and  _433
REMARK  185  A    between atoms: _433  and  _434
REMARK  186  A    between atoms: _437  and  _439
REMARK  187  A    between atoms: _439  and  _440
REMARK  188  A    between atoms: _442  and  _444
REMARK  189  A    between atoms: _444  and  _445
REMARK  190  A    between atoms: _444  and  _447
REMARK  191  A    between atoms: _447  and  _448
REMARK  192  A    between atoms: _449  and  _451
REMARK  193  A    between atoms: _451  and  _452
REMARK  194  A    between atoms: _455  and  _457
REMARK  195  A    between atoms: _457  and  _458
REMARK  196  A    between atoms: _457  and  _460
REMARK  197  A    between atoms: _460  and  _461
REMARK  198  A    between atoms: _461  and  _462
REMARK  199  A    between atoms: _462  and  _463
REMARK  200  A    between atoms: _472  and  _474
REMARK  201  A    between atoms: _474  and  _475
REMARK  202  A    between atoms: _474  and  _477
REMARK  203  A    between atoms: _477  and  _478
REMARK  204  A    between atoms: _478  and  _479
REMARK  205  A    between atoms: _479  and  _480
REMARK  206  A    between atoms: _480  and  _481
REMARK  207  A    between atoms: _485  and  _487
REMARK  208  A    between atoms: _487  and  _488
REMARK  209  A    between atoms: _487  and  _490
REMARK  210  A    between atoms: _490  and  _491
REMARK  211  A    between atoms: _496  and  _497
REMARK  212  A    between atoms: _499  and  _501
REMARK  213  A    between atoms: _501  and  _502
REMARK  214  A    between atoms: _504  and  _506
REMARK  215  A    between atoms: _506  and  _507
REMARK  216  A    between atoms: _506  and  _509
REMARK  217  A    between atoms: _509  and  _510
REMARK  218  A    between atoms: _513  and  _515
REMARK  219  A    between atoms: _515  and  _516
REMARK  220  A    between atoms: _515  and  _518
REMARK  221  A    between atoms: _518  and  _519
REMARK  222  A    between atoms: _524  and  _525
REMARK  223  A    between atoms: _527  and  _529
REMARK  224  A    between atoms: _529  and  _530
REMARK  225  A    between atoms: _529  and  _532
REMARK  226  A    between atoms: _532  and  _533
REMARK                            x       y       z     vdW  Elec       q    Type
REMARK                         _______ _______ _______ _____ _____    ______ ____
ROOT
ATOM      1  CB  HIS A   1      12.768  58.818  -3.593  0.00  0.00    +0.072 C 
ENDROOT
BRANCH   1   2
ATOM      2  CG  HIS A   1      13.463  59.801  -2.700  0.00  0.00    +0.082 A 
ATOM      3  ND1 HIS A   1      14.134  59.422  -1.552  0.00  0.00    -0.227 NA
ATOM      4  CE1 HIS A   1      14.601  60.502  -0.950  0.00  0.00    +0.199 A 
ATOM      5  NE2 HIS A   1      14.256  61.565  -1.666  0.00  0.00    -0.221 NA
ATOM      6  CD2 HIS A   1      13.544  61.148  -2.764  0.00  0.00    +0.115 A 
ENDBRANCH   1   2
BRANCH   1   7
ATOM      7  CA  HIS A   1      13.532  58.473  -4.879  0.00  0.00    +0.139 C 
BRANCH   7   8
ATOM      8  N   HIS A   1      14.577  57.472  -4.661  0.00  0.00    -0.239 NA
ATOM      9  H   HIS A   1      14.878  57.215  -3.699  0.00  0.00    +0.142 HD
ENDBRANCH   7   8
BRANCH   7  10
ATOM     10  C   HIS A   1      14.051  59.733  -5.589  0.00  0.00    +0.224 C 
ATOM     11  O   HIS A   1      13.268  60.446  -6.219  0.00  0.00    -0.287 OA
ENDBRANCH   7  10
ENDBRANCH   1   7
TORSDOF 4
REMARK  Name = ../refined-set-2016/2vwn/2vwn_pocket.pdb
REMARK  226 active torsions:
REMARK  status: ('A' for Active; 'I' for Inactive)
REMARK    1  A    between atoms: _1  and  _5
REMARK    2  A    between atoms: _5  and  _6
REMARK    3  A    between atoms: _5  and  _8
REMARK    4  A    between atoms: _8  and  _9
REMARK    5  A    between atoms: _12  and  _14
REMARK    6  A    between atoms: _14  and  _15
REMARK    7  A    between atoms: _14  and  _17
REMARK    8  A    between atoms: _20  and  _22
REMARK    9  A    between atoms: _22  and  _23
REMARK   10  A    between atoms: _22  and  _25
REMARK   11  A    between atoms: _25  and  _26
REMARK   12  A    between atoms: _31  and  _33
REMARK   13  A    between atoms: _33  and  _34
REMARK   14  A    between atoms: _33  and  _36
REMARK   15  A    between atoms: _36  and  _37
REMARK   16  A    between atoms: _37  and  _38
REMARK   17  A    between atoms: _43  and  _45
REMARK   18  A    between atoms: _45  and  _46
REMARK   19  A    between atoms: _45  and  _48
REMARK   20  A    between atoms: _48  and  _49
REMARK   21  A    between atoms: _52  and  _54
REMARK   22  A    between atoms: _54  and  _55
REMARK   23  A    between atoms: _54  and  _57
REMARK   24  A    between atoms: _57  and  _58
REMARK   25  A    between atoms: _58  and  _59
REMARK   26  A    between atoms: _59  and  _60
REMARK   27  A    between atoms: _60  and  _61
REMARK   28  A    between atoms: _65  and  _67
REMARK   29  A    between atoms: _67  and  _68
REMARK   30  A    between atoms: _67  and  _70
REMARK   31  A    between atoms: _70  and  _71
REMARK   32  A    between atoms: _71  and  _72
REMARK   33  A    between atoms: _75  and  _77
REMARK   34  A    between atoms: _77  and  _78
REMARK   35  A    between atoms: _77  and  _80
REMARK   36  A    between atoms: _80  and  _81
REMARK   37  A    between atoms: _84  and  _86
REMARK   38  A    between atoms: _86  and  _87
REMARK   39  A    between atoms: _86  and  _89
REMARK   40  A    between atoms: _89  and  _90
REMARK   41  A    between atoms: _95  and  _96
REMARK   42  A    between atoms: _98  and  _100
REMARK   43  A    between atoms: _100  and  _101
REMARK   44  A    between atoms: _100  and  _103
REMARK   45  A    between atoms: _103  and  _104
REMARK   46  A    between atoms: _107  and  _109
REMARK   47  A    between atoms: _109  and  _110
REMARK   48  A    between atoms: _109  and  _112
REMARK   49  A    between atoms: _112  and  _113
REMARK   50  A    between atoms: _116  and  _118
REMARK   51  A    between atoms: _118  and  _119
REMARK   52  A    between atoms: _118  and  _121
REMARK   53  A    between atoms: _124  and  _126
REMARK   54  A    between atoms: _126  and  _127
REMARK   55  A    between atoms: _126  and  _129
REMARK   56  A    between atoms: _129  and  _130
REMARK   57  A    between atoms: _130  and  _131
REMARK   58  A    between atoms: _131  and  _132
REMARK   59  A    between atoms: _141  and  _143
REMARK   60  A    between atoms: _143  and  _144
REMARK   61  A    between atoms: _143  and  _146
REMARK   62  A    between atoms: _146  and  _147
REMARK   63  A    between atoms: _152  and  _154
REMARK   64  A    between atoms: _154  and  _155
REMARK   65  A    between atoms: _154  and  _157
REMARK   66  A    between atoms: _157  and  _158
REMARK   67  A    between atoms: _158  and  _159
REMARK   68  A    between atoms: _162  and  _164
REMARK   69  A    between atoms: _164  and  _165
REMARK   70  A    between atoms: _164  and  _167
REMARK   71  A    between atoms: _167  and  _168
REMARK   72  A    between atoms: _168  and  _169
REMARK   73  A    between atoms: _169  and  _170
REMARK   74  A    between atoms: _170  and  _171
REMARK   75  A    between atoms: _175  and  _177
REMARK   76  A    between atoms: _177  and  _178
REMARK   77  A    between atoms: _180  and  _182
REMARK   78  A    between atoms: _182  and  _183
REMARK   79  A    between atoms: _182  and  _185
REMARK   80  A    between atoms: _185  and  _186
REMARK   81  A    between atoms: _186  and  _187
REMARK   82  A    between atoms: _192  and  _194
REMARK   83  A    between atoms: _194  and  _195
REMARK   84  A    between atoms: _194  and  _197
REMARK   85  A    between atoms: _200  and  _202
REMARK   86  A    between atoms: _202  and  _203
REMARK   87  A    between atoms: _202  and  _205
REMARK   88  A    between atoms: _205  and  _206
REMARK   89  A    between atoms: _208  and  _210
REMARK   90  A    between atoms: _210  and  _211
REMARK   91  A    between atoms: _210  and  _213
REMARK   92  A    between atoms: _213  and  _214
REMARK   93  A    between atoms: _216  and  _218
REMARK   94  A    between atoms: _218  and  _219
REMARK   95  A    between atoms: _218  and  _221
REMARK   96  A    between atoms: _221  and  _222
REMARK   97  A    between atoms: _228  and  _230
REMARK   98  A    between atoms: _230  and  _231
REMARK   99  A    between atoms: _230  and  _233
REMARK  100  A    between atoms: _233  and  _234
REMARK  101  A    between atoms: _237  and  _239
REMARK  102  A    between atoms: _239  and  _240
REMARK  103  A    between atoms: _239  and  _242
REMARK  104  A    between atoms: _242  and  _243
REMARK  105  A    between atoms: _246  and  _248
REMARK  106  A    between atoms: _248  and  _249
REMARK  107  A    between atoms: _248  and  _251
REMARK  108  A    between atoms: _251  and  _252
REMARK  109  A    between atoms: _255  and  _257
REMARK  110  A    between atoms: _257  and  _258
REMARK  111  A    between atoms: _257  and  _260
REMARK  112  A    between atoms: _260  and  _261
REMARK  113  A    between atoms: _261  and  _262
REMARK  114  A    between atoms: _264  and  _266
REMARK  115  A    between atoms: _266  and  _267
REMARK  116  A    between atoms: _266  and  _269
REMARK  117  A    between atoms: _269  and  _270
REMARK  118  A    between atoms: _276  and  _278
REMARK  119  A    between atoms: _278  and  _279
REMARK  120  A    between atoms: _278  and  _281
REMARK  121  A    between atoms: _283  and  _285
REMARK  122  A    between atoms: _285  and  _286
REMARK  123  A    between atoms: _289  and  _291
REMARK  124  A    between atoms: _291  and  _292
REMARK  125  A    between atoms: _294  and  _296
REMARK  126  A    between atoms: _296  and  _297
REMARK  127  A    between atoms: _296  and  _299
REMARK  128  A    between atoms: _299  and  _300
REMARK  129  A    between atoms: _300  and  _301
REMARK  130  A    between atoms: _304  and  _306
REMARK  131  A    between atoms: _306  and  _307
REMARK  132  A    between atoms: _306  and  _309
REMARK  133  A    between atoms: _309  and  _310
REMARK  134  A    between atoms: _313  and  _315
REMARK  135  A    between atoms: _315  and  _316
REMARK  136  A    between atoms: _319  and  _321
REMARK  137  A    between atoms: _321  and  _322
REMARK  138  A    between atoms: _321  and  _324
REMARK  139  A    between atoms: _324  and  _325
REMARK  140  A    between atoms: _325  and  _448
REMARK  141  A    between atoms: _326  and  _328
REMARK  142  A    between atoms: _328  and  _329
REMARK  143  A    between atoms: _328  and  _331
REMARK  144  A    between atoms: _331  and  _332
REMARK  145  A    between atoms: _332  and  _333
REMARK  146  A    between atoms: _338  and  _340
REMARK  147  A    between atoms: _340  and  _341
REMARK  148  A    between atoms: _343  and  _345
REMARK  149  A    between atoms: _345  and  _346
REMARK  150  A    between atoms: _345  and  _348
REMARK  151  A    between atoms: _348  and  _349
REMARK  152  A    between atoms: _352  and  _354
REMARK  153  A    between atoms: _354  and  _355
REMARK  154  A    between atoms: _354  and  _357
REMARK  155  A    between atoms: _357  and  _358
REMARK  156  A    between atoms: _360  and  _362
REMARK  157  A    between atoms: _362  and  _363
REMARK  158  A    between atoms: _365  and  _367
REMARK  159  A    between atoms: _367  and  _368
REMARK  160  A    between atoms: _370  and  _372
REMARK  161  A    between atoms: _372  and  _373
REMARK  162  A    between atoms: _372  and  _375
REMARK  163  A    between atoms: _375  and  _376
REMARK  164  A    between atoms: _381  and  _383
REMARK  165  A    between atoms: _383  and  _384
REMARK  166  A    between atoms: _383  and  _386
REMARK  167  A    between atoms: _386  and  _387
REMARK  168  A    between atoms: _390  and  _392
REMARK  169  A    between atoms: _392  and  _393
REMARK  170  A    between atoms: _392  and  _395
REMARK  171  A    between atoms: _398  and  _400
REMARK  172  A    between atoms: _400  and  _401
REMARK  173  A    between atoms: _400  and  _403
REMARK  174  A    between atoms: _403  and  _404
REMARK  175  A    between atoms: _406  and  _408
REMARK  176  A    between atoms: _408  and  _409
REMARK  177  A    between atoms: _408  and  _411
REMARK  178  A    between atoms: _411  and  _412
REMARK  179  A    between atoms: _422  and  _424
REMARK  180  A    between atoms: _424  and  _425
REMARK  181  A    between atoms: _427  and  _429
REMARK  182  A    between atoms: _429  and  _430
REMARK  183  A    between atoms: _429  and  _432
REMARK  184  A    between atoms: _432  and  _433
REMARK  185  A    between atoms: _433  and  _434
REMARK  186  A    between atoms: _437  and  _439
REMARK  187  A    between atoms: _439  and  _440
REMARK  188  A    between atoms: _442  and  _444
REMARK  189  A    between atoms: _444  and  _445
REMARK  190  A    between atoms: _444  and  _447
REMARK  191  A    between atoms: _447  and  _448
REMARK  192  A    between atoms: _449  and  _451
REMARK  193  A    between atoms: _451  and  _452
REMARK  194  A    between atoms: _455  and  _457
REMARK  195  A    between atoms: _457  and  _458
REMARK  196  A    between atoms: _457  and  _460
REMARK  197  A    between atoms: _460  and  _461
REMARK  198  A    between atoms: _461  and  _462
REMARK  199  A    between atoms: _462  and  _463
REMARK  200  A    between atoms: _472  and  _474
REMARK  201  A    between atoms: _474  and  _475
REMARK  202  A    between atoms: _474  and  _477
REMARK  203  A    between atoms: _477  and  _478
REMARK  204  A    between atoms: _478  and  _479
REMARK  205  A    between atoms: _479  and  _480
REMARK  206  A    between atoms: _480  and  _481
REMARK  207  A    between atoms: _485  and  _487
REMARK  208  A    between atoms: _487  and  _488
REMARK  209  A    between atoms: _487  and  _490
REMARK  210  A    between atoms: _490  and  _491
REMARK  211  A    between atoms: _496  and  _497
REMARK  212  A    between atoms: _499  and  _501
REMARK  213  A    between atoms: _501  and  _502
REMARK  214  A    between atoms: _504  and  _506
REMARK  215  A    between atoms: _506  and  _507
REMARK  216  A    between atoms: _506  and  _509
REMARK  217  A    between atoms: _509  and  _510
REMARK  218  A    between atoms: _513  and  _515
REMARK  219  A    between atoms: _515  and  _516
REMARK  220  A    between atoms: _515  and  _518
REMARK  221  A    between atoms: _518  and  _519
REMARK  222  A    between atoms: _524  and  _525
REMARK  223  A    between atoms: _527  and  _529
REMARK  224  A    between atoms: _529  and  _530
REMARK  225  A    between atoms: _529  and  _532
REMARK  226  A    between atoms: _532  and  _533
REMARK                            x       y       z     vdW  Elec       q    Type
REMARK                         _______ _______ _______ _____ _____    ______ ____
ROOT
ATOM      1  CB  GLN A   1      13.667  64.850  -8.187  0.00  0.00    +0.035 C 
ENDROOT
BRANCH   1   2
ATOM      2  CA  GLN A   1      12.950  64.400  -9.454  0.00  0.00    +0.134 C 
BRANCH   2   3
ATOM      3  N   GLN A   1      13.057  62.946  -9.586  0.00  0.00    -0.239 NA
ATOM      4  H   GLN A   1      13.896  62.465  -9.204  0.00  0.00    +0.142 HD
ENDBRANCH   2   3
BRANCH   2   5
ATOM      5  C   GLN A   1      13.465  65.171 -10.665  0.00  0.00    +0.224 C 
ATOM      6  O   GLN A   1      13.062  66.304 -10.901  0.00  0.00    -0.287 OA
ENDBRANCH   2   5
ENDBRANCH   1   2
BRANCH   1   7
ATOM      7  CG  GLN A   1      12.948  64.396  -6.944  0.00  0.00    +0.087 C 
BRANCH   7   8
ATOM      8  CD  GLN A   1      13.625  64.853  -5.669  0.00  0.00    +0.219 C 
ATOM      9  OE1 GLN A   1      13.754  64.080  -4.711  0.00  0.00    -0.275 OA
ATOM     10  NE2 GLN A   1      14.079  66.105  -5.652  0.00  0.00    -0.329 N 
ATOM     11 HE21 GLN A   1      14.566  66.470  -4.809  0.00  0.00    +0.145 HD
ATOM     12 HE22 GLN A   1      13.947  66.717  -6.482  0.00  0.00    +0.145 HD
ENDBRANCH   7   8
ENDBRANCH   1   7
TORSDOF 5
REMARK  Name = ../refined-set-2016/2vwn/2vwn_pocket.pdb
REMARK  226 active torsions:
REMARK  status: ('A' for Active; 'I' for Inactive)
REMARK    1  A    between atoms: _1  and  _5
REMARK    2  A    between atoms: _5  and  _6
REMARK    3  A    between atoms: _5  and  _8
REMARK    4  A    between atoms: _8  and  _9
REMARK    5  A    between atoms: _12  and  _14
REMARK    6  A    between atoms: _14  and  _15
REMARK    7  A    between atoms: _14  and  _17
REMARK    8  A    between atoms: _20  and  _22
REMARK    9  A    between atoms: _22  and  _23
REMARK   10  A    between atoms: _22  and  _25
REMARK   11  A    between atoms: _25  and  _26
REMARK   12  A    between atoms: _31  and  _33
REMARK   13  A    between atoms: _33  and  _34
REMARK   14  A    between atoms: _33  and  _36
REMARK   15  A    between atoms: _36  and  _37
REMARK   16  A    between atoms: _37  and  _38
REMARK   17  A    between atoms: _43  and  _45
REMARK   18  A    between atoms: _45  and  _46
REMARK   19  A    between atoms: _45  and  _48
REMARK   20  A    between atoms: _48  and  _49
REMARK   21  A    between atoms: _52  and  _54
REMARK   22  A    between atoms: _54  and  _55
REMARK   23  A    between atoms: _54  and  _57
REMARK   24  A    between atoms: _57  and  _58
REMARK   25  A    between atoms: _58  and  _59
REMARK   26  A    between atoms: _59  and  _60
REMARK   27  A    between atoms: _60  and  _61
REMARK   28  A    between atoms: _65  and  _67
REMARK   29  A    between atoms: _67  and  _68
REMARK   30  A    between atoms: _67  and  _70
REMARK   31  A    between atoms: _70  and  _71
REMARK   32  A    between atoms: _71  and  _72
REMARK   33  A    between atoms: _75  and  _77
REMARK   34  A    between atoms: _77  and  _78
REMARK   35  A    between atoms: _77  and  _80
REMARK   36  A    between atoms: _80  and  _81
REMARK   37  A    between atoms: _84  and  _86
REMARK   38  A    between atoms: _86  and  _87
REMARK   39  A    between atoms: _86  and  _89
REMARK   40  A    between atoms: _89  and  _90
REMARK   41  A    between atoms: _95  and  _96
REMARK   42  A    between atoms: _98  and  _100
REMARK   43  A    between atoms: _100  and  _101
REMARK   44  A    between atoms: _100  and  _103
REMARK   45  A    between atoms: _103  and  _104
REMARK   46  A    between atoms: _107  and  _109
REMARK   47  A    between atoms: _109  and  _110
REMARK   48  A    between atoms: _109  and  _112
REMARK   49  A    between atoms: _112  and  _113
REMARK   50  A    between atoms: _116  and  _118
REMARK   51  A    between atoms: _118  and  _119
REMARK   52  A    between atoms: _118  and  _121
REMARK   53  A    between atoms: _124  and  _126
REMARK   54  A    between atoms: _126  and  _127
REMARK   55  A    between atoms: _126  and  _129
REMARK   56  A    between atoms: _129  and  _130
REMARK   57  A    between atoms: _130  and  _131
REMARK   58  A    between atoms: _131  and  _132
REMARK   59  A    between atoms: _141  and  _143
REMARK   60  A    between atoms: _143  and  _144
REMARK   61  A    between atoms: _143  and  _146
REMARK   62  A    between atoms: _146  and  _147
REMARK   63  A    between atoms: _152  and  _154
REMARK   64  A    between atoms: _154  and  _155
REMARK   65  A    between atoms: _154  and  _157
REMARK   66  A    between atoms: _157  and  _158
REMARK   67  A    between atoms: _158  and  _159
REMARK   68  A    between atoms: _162  and  _164
REMARK   69  A    between atoms: _164  and  _165
REMARK   70  A    between atoms: _164  and  _167
REMARK   71  A    between atoms: _167  and  _168
REMARK   72  A    between atoms: _168  and  _169
REMARK   73  A    between atoms: _169  and  _170
REMARK   74  A    between atoms: _170  and  _171
REMARK   75  A    between atoms: _175  and  _177
REMARK   76  A    between atoms: _177  and  _178
REMARK   77  A    between atoms: _180  and  _182
REMARK   78  A    between atoms: _182  and  _183
REMARK   79  A    between atoms: _182  and  _185
REMARK   80  A    between atoms: _185  and  _186
REMARK   81  A    between atoms: _186  and  _187
REMARK   82  A    between atoms: _192  and  _194
REMARK   83  A    between atoms: _194  and  _195
REMARK   84  A    between atoms: _194  and  _197
REMARK   85  A    between atoms: _200  and  _202
REMARK   86  A    between atoms: _202  and  _203
REMARK   87  A    between atoms: _202  and  _205
REMARK   88  A    between atoms: _205  and  _206
REMARK   89  A    between atoms: _208  and  _210
REMARK   90  A    between atoms: _210  and  _211
REMARK   91  A    between atoms: _210  and  _213
REMARK   92  A    between atoms: _213  and  _214
REMARK   93  A    between atoms: _216  and  _218
REMARK   94  A    between atoms: _218  and  _219
REMARK   95  A    between atoms: _218  and  _221
REMARK   96  A    between atoms: _221  and  _222
REMARK   97  A    between atoms: _228  and  _230
REMARK   98  A    between atoms: _230  and  _231
REMARK   99  A    between atoms: _230  and  _233
REMARK  100  A    between atoms: _233  and  _234
REMARK  101  A    between atoms: _237  and  _239
REMARK  102  A    between atoms: _239  and  _240
REMARK  103  A    between atoms: _239  and  _242
REMARK  104  A    between atoms: _242  and  _243
REMARK  105  A    between atoms: _246  and  _248
REMARK  106  A    between atoms: _248  and  _249
REMARK  107  A    between atoms: _248  and  _251
REMARK  108  A    between atoms: _251  and  _252
REMARK  109  A    between atoms: _255  and  _257
REMARK  110  A    between atoms: _257  and  _258
REMARK  111  A    between atoms: _257  and  _260
REMARK  112  A    between atoms: _260  and  _261
REMARK  113  A    between atoms: _261  and  _262
REMARK  114  A    between atoms: _264  and  _266
REMARK  115  A    between atoms: _266  and  _267
REMARK  116  A    between atoms: _266  and  _269
REMARK  117  A    between atoms: _269  and  _270
REMARK  118  A    between atoms: _276  and  _278
REMARK  119  A    between atoms: _278  and  _279
REMARK  120  A    between atoms: _278  and  _281
REMARK  121  A    between atoms: _283  and  _285
REMARK  122  A    between atoms: _285  and  _286
REMARK  123  A    between atoms: _289  and  _291
REMARK  124  A    between atoms: _291  and  _292
REMARK  125  A    between atoms: _294  and  _296
REMARK  126  A    between atoms: _296  and  _297
REMARK  127  A    between atoms: _296  and  _299
REMARK  128  A    between atoms: _299  and  _300
REMARK  129  A    between atoms: _300  and  _301
REMARK  130  A    between atoms: _304  and  _306
REMARK  131  A    between atoms: _306  and  _307
REMARK  132  A    between atoms: _306  and  _309
REMARK  133  A    between atoms: _309  and  _310
REMARK  134  A    between atoms: _313  and  _315
REMARK  135  A    between atoms: _315  and  _316
REMARK  136  A    between atoms: _319  and  _321
REMARK  137  A    between atoms: _321  and  _322
REMARK  138  A    between atoms: _321  and  _324
REMARK  139  A    between atoms: _324  and  _325
REMARK  140  A    between atoms: _325  and  _448
REMARK  141  A    between atoms: _326  and  _328
REMARK  142  A    between atoms: _328  and  _329
REMARK  143  A    between atoms: _328  and  _331
REMARK  144  A    between atoms: _331  and  _332
REMARK  145  A    between atoms: _332  and  _333
REMARK  146  A    between atoms: _338  and  _340
REMARK  147  A    between atoms: _340  and  _341
REMARK  148  A    between atoms: _343  and  _345
REMARK  149  A    between atoms: _345  and  _346
REMARK  150  A    between atoms: _345  and  _348
REMARK  151  A    between atoms: _348  and  _349
REMARK  152  A    between atoms: _352  and  _354
REMARK  153  A    between atoms: _354  and  _355
REMARK  154  A    between atoms: _354  and  _357
REMARK  155  A    between atoms: _357  and  _358
REMARK  156  A    between atoms: _360  and  _362
REMARK  157  A    between atoms: _362  and  _363
REMARK  158  A    between atoms: _365  and  _367
REMARK  159  A    between atoms: _367  and  _368
REMARK  160  A    between atoms: _370  and  _372
REMARK  161  A    between atoms: _372  and  _373
REMARK  162  A    between atoms: _372  and  _375
REMARK  163  A    between atoms: _375  and  _376
REMARK  164  A    between atoms: _381  and  _383
REMARK  165  A    between atoms: _383  and  _384
REMARK  166  A    between atoms: _383  and  _386
REMARK  167  A    between atoms: _386  and  _387
REMARK  168  A    between atoms: _390  and  _392
REMARK  169  A    between atoms: _392  and  _393
REMARK  170  A    between atoms: _392  and  _395
REMARK  171  A    between atoms: _398  and  _400
REMARK  172  A    between atoms: _400  and  _401
REMARK  173  A    between atoms: _400  and  _403
REMARK  174  A    between atoms: _403  and  _404
REMARK  175  A    between atoms: _406  and  _408
REMARK  176  A    between atoms: _408  and  _409
REMARK  177  A    between atoms: _408  and  _411
REMARK  178  A    between atoms: _411  and  _412
REMARK  179  A    between atoms: _422  and  _424
REMARK  180  A    between atoms: _424  and  _425
REMARK  181  A    between atoms: _427  and  _429
REMARK  182  A    between atoms: _429  and  _430
REMARK  183  A    between atoms: _429  and  _432
REMARK  184  A    between atoms: _432  and  _433
REMARK  185  A    between atoms: _433  and  _434
REMARK  186  A    between atoms: _437  and  _439
REMARK  187  A    between atoms: _439  and  _440
REMARK  188  A    between atoms: _442  and  _444
REMARK  189  A    between atoms: _444  and  _445
REMARK  190  A    between atoms: _444  and  _447
REMARK  191  A    between atoms: _447  and  _448
REMARK  192  A    between atoms: _449  and  _451
REMARK  193  A    between atoms: _451  and  _452
REMARK  194  A    between atoms: _455  and  _457
REMARK  195  A    between atoms: _457  and  _458
REMARK  196  A    between atoms: _457  and  _460
REMARK  197  A    between atoms: _460  and  _461
REMARK  198  A    between atoms: _461  and  _462
REMARK  199  A    between atoms: _462  and  _463
REMARK  200  A    between atoms: _472  and  _474
REMARK  201  A    between atoms: _474  and  _475
REMARK  202  A    between atoms: _474  and  _477
REMARK  203  A    between atoms: _477  and  _478
REMARK  204  A    between atoms: _478  and  _479
REMARK  205  A    between atoms: _479  and  _480
REMARK  206  A    between atoms: _480  and  _481
REMARK  207  A    between atoms: _485  and  _487
REMARK  208  A    between atoms: _487  and  _488
REMARK  209  A    between atoms: _487  and  _490
REMARK  210  A    between atoms: _490  and  _491
REMARK  211  A    between atoms: _496  and  _497
REMARK  212  A    between atoms: _499  and  _501
REMARK  213  A    between atoms: _501  and  _502
REMARK  214  A    between atoms: _504  and  _506
REMARK  215  A    between atoms: _506  and  _507
REMARK  216  A    between atoms: _506  and  _509
REMARK  217  A    between atoms: _509  and  _510
REMARK  218  A    between atoms: _513  and  _515
REMARK  219  A    between atoms: _515  and  _516
REMARK  220  A    between atoms: _515  and  _518
REMARK  221  A    between atoms: _518  and  _519
REMARK  222  A    between atoms: _524  and  _525
REMARK  223  A    between atoms: _527  and  _529
REMARK  224  A    between atoms: _529  and  _530
REMARK  225  A    between atoms: _529  and  _532
REMARK  226  A    between atoms: _532  and  _533
REMARK                            x       y       z     vdW  Elec       q    Type
REMARK                         _______ _______ _______ _____ _____    ______ ____
ROOT
ATOM      1  C   GLU A   3       4.662  53.703  -0.254  0.00  0.00    +0.241 C 
ATOM      2  O   GLU A   3       4.070  54.138   0.734  0.00  0.00    -0.273 OA
ATOM      3  N   THR A   4       5.830  53.083  -0.175  0.00  0.00    -0.295 N 
ATOM      4  H   THR A   4       6.340  52.839  -1.048  0.00  0.00    +0.150 HD
ENDROOT
BRANCH   3   5
ATOM      5  CA  THR A   4       6.412  52.737   1.118  0.00  0.00    +0.176 C 
BRANCH   5   6
ATOM      6  C   THR A   4       7.733  53.445   1.389  0.00  0.00    +0.243 C 
ATOM      7  O   THR A   4       8.213  53.460   2.524  0.00  0.00    -0.273 OA
ATOM      8  N   TYR A   5       8.337  54.007   0.344  0.00  0.00    -0.297 N 
ATOM      9  H   TYR A   5       7.830  54.092  -0.560  0.00  0.00    +0.150 HD
BRANCH   8  10
ATOM     10  CA  TYR A   5       9.707  54.505   0.458  0.00  0.00    +0.153 C 
BRANCH  10  11
ATOM     11  C   TYR A   5      10.724  53.448   0.884  0.00  0.00    +0.241 C 
ATOM     12  O   TYR A   5      11.855  53.777   1.248  0.00  0.00    -0.273 OA
ATOM     13  N   ASP A   6      10.337  52.175   0.799  0.00  0.00    -0.298 N 
ATOM     14  H   ASP A   6       9.374  51.947   0.478  0.00  0.00    +0.150 HD
BRANCH  13  15
ATOM     15  CA  ASP A   6      11.261  51.098   1.155  0.00  0.00    +0.148 C 
BRANCH  15  16
ATOM     16  C   ASP A   6      12.246  50.854  -0.011  0.00  0.00    +0.227 C 
ATOM     17  O   ASP A   6      11.980  51.197  -1.160  0.00  0.00    -0.286 OA
ENDBRANCH  15  16
BRANCH  15  18
ATOM     18  CB  ASP A   6      10.425  49.848   1.445  0.00  0.00    +0.142 C 
BRANCH  18  19
ATOM     19  CG  ASP A   6      11.155  48.792   2.253  0.00  0.00    +0.367 C 
ATOM     20  OD2 ASP A   6      12.253  49.046   2.772  0.00  0.00    -0.246 OA
ATOM     21  OD1 ASP A   6      10.537  47.699   2.380  0.00  0.00    -0.246 OA
ENDBRANCH  18  19
ENDBRANCH  15  18
ENDBRANCH  13  15
ENDBRANCH  10  11
BRANCH  10  22
ATOM     22  CB  TYR A   5       9.807  55.760   1.336  0.00  0.00    +0.055 C 
BRANCH  22  23
ATOM     23  CG  TYR A   5       9.693  57.034   0.537  0.00  0.00    -0.020 A 
ATOM     24  CD2 TYR A   5      10.786  57.854   0.362  0.00  0.00    -0.001 A 
ATOM     25  CE2 TYR A   5      10.686  59.021  -0.370  0.00  0.00    +0.036 A 
ATOM     26  CZ  TYR A   5       9.497  59.372  -0.941  0.00  0.00    +0.134 A 
ATOM     27  CE1 TYR A   5       8.387  58.575  -0.790  0.00  0.00    +0.036 A 
ATOM     28  CD1 TYR A   5       8.488  57.407  -0.049  0.00  0.00    -0.001 A 
BRANCH  26  29
ATOM     29  OH  TYR A   5       9.452  60.554  -1.663  0.00  0.00    -0.506 OA
ATOM     30  HH  TYR A   5       9.689  61.311  -1.070  0.00  0.00    +0.292 HD
ENDBRANCH  26  29
ENDBRANCH  22  23
ENDBRANCH  10  22
ENDBRANCH   8  10
ENDBRANCH   5   6
BRANCH   5  31
ATOM     31  CB  THR A   4       6.723  51.262   1.165  0.00  0.00    +0.137 C 
ATOM     32  CG2 THR A   4       5.414  50.440   1.005  0.00  0.00    +0.034 C 
BRANCH  31  33
ATOM     33  OG1 THR A   4       7.633  50.958   0.118  0.00  0.00    -0.382 OA
ATOM     34  HG1 THR A   4       7.846  49.991   0.138  0.00  0.00    +0.210 HD
ENDBRANCH  31  33
ENDBRANCH   5  31
ENDBRANCH   3   5
BRANCH   1  35
ATOM     35  CA  GLU A   3       4.077  53.870  -1.656  0.00  0.00    +0.149 C 
BRANCH  35  38
ATOM     36  C   LYS A   2       5.826  55.368  -2.415  0.00  0.00    +0.241 C 
ATOM     37  O   LYS A   2       5.615  56.131  -1.482  0.00  0.00    -0.273 OA
ATOM     38  N   GLU A   3       5.125  54.251  -2.583  0.00  0.00    -0.297 N 
ATOM     39  H   GLU A   3       5.333  53.637  -3.397  0.00  0.00    +0.150 HD
BRANCH  36  40
ATOM     40  CA  LYS A   2       6.910  55.679  -3.459  0.00  0.00    +0.149 C 
BRANCH  40  43
ATOM     41  C   THR A   1       7.964  53.476  -3.561  0.00  0.00    +0.241 C 
ATOM     42  O   THR A   1       8.299  53.469  -2.357  0.00  0.00    -0.274 OA
ATOM     43  N   LYS A   2       7.341  54.486  -4.158  0.00  0.00    -0.297 N 
ATOM     44  H   LYS A   2       7.153  54.417  -5.179  0.00  0.00    +0.150 HD
BRANCH  41  45
ATOM     45  CA  THR A   1       8.259  52.291  -4.464  0.00  0.00    +0.172 C 
BRANCH  45  46
ATOM     46  N   THR A   1       9.521  51.654  -4.090  0.00  0.00    -0.236 NA
ATOM     47  H   THR A   1       9.803  51.642  -3.089  0.00  0.00    +0.142 HD
ENDBRANCH  45  46
BRANCH  45  48
ATOM     48  CB  THR A   1       7.055  51.323  -4.408  0.00  0.00    +0.135 C 
ATOM     49  CG2 THR A   1       6.887  50.738  -3.029  0.00  0.00    +0.034 C 
BRANCH  48  50
ATOM     50  OG1 THR A   1       5.866  52.060  -4.676  0.00  0.00    -0.383 OA
ATOM     51  HG1 THR A   1       5.087  51.450  -4.643  0.00  0.00    +0.210 HD
ENDBRANCH  48  50
ENDBRANCH  45  48
ENDBRANCH  41  45
ENDBRANCH  40  43
BRANCH  40  52
ATOM     52  CB  LYS A   2       6.380  56.703  -4.482  0.00  0.00    +0.029 C 
BRANCH  52  53
ATOM     53  CG  LYS A   2       7.394  57.184  -5.541  0.00  0.00    +0.000 C 
BRANCH  53  54
ATOM     54  CD  LYS A   2       6.856  58.474  -6.214  0.00  0.00    -0.024 C 
BRANCH  54  55
ATOM     55  CE  LYS A   2       7.427  58.718  -7.609  0.00  0.00    -0.086 C 
BRANCH  55  56
ATOM     56  NZ  LYS A   2       6.900  60.002  -8.218  0.00  0.00    +0.380 N 
ATOM     57  HZ1 LYS A   2       7.163  60.805  -7.612  0.00  0.00    -0.089 HD
ATOM     58  HZ2 LYS A   2       5.864  59.949  -8.294  0.00  0.00    -0.089 HD
ATOM     59  HZ3 LYS A   2       7.312  60.130  -9.164  0.00  0.00    -0.089 HD
ENDBRANCH  55  56
ENDBRANCH  54  55
ENDBRANCH  53  54
ENDBRANCH  52  53
ENDBRANCH  40  52
ENDBRANCH  36  40
ENDBRANCH  35  38
BRANCH  35  60
ATOM     60  CB  GLU A   3       3.411  52.588  -2.130  0.00  0.00    +0.041 C 
BRANCH  60  61
ATOM     61  CG  GLU A   3       2.676  51.749  -1.124  0.00  0.00    +0.116 C 
BRANCH  61  62
ATOM     62  CD  GLU A   3       2.111  50.511  -1.804  0.00  0.00    +0.365 C 
ATOM     63  OE2 GLU A   3       2.272  49.391  -1.272  0.00  0.00    -0.246 OA
ATOM     64  OE1 GLU A   3       1.537  50.669  -2.906  0.00  0.00    -0.246 OA
ENDBRANCH  61  62
ENDBRANCH  60  61
ENDBRANCH  35  60
ENDBRANCH   1  35
TORSDOF 29
REMARK  Name = ../refined-set-2016/2vwn/2vwn_pocket.pdb
REMARK  226 active torsions:
REMARK  status: ('A' for Active; 'I' for Inactive)
REMARK    1  A    between atoms: _1  and  _5
REMARK    2  A    between atoms: _5  and  _6
REMARK    3  A    between atoms: _5  and  _8
REMARK    4  A    between atoms: _8  and  _9
REMARK    5  A    between atoms: _12  and  _14
REMARK    6  A    between atoms: _14  and  _15
REMARK    7  A    between atoms: _14  and  _17
REMARK    8  A    between atoms: _20  and  _22
REMARK    9  A    between atoms: _22  and  _23
REMARK   10  A    between atoms: _22  and  _25
REMARK   11  A    between atoms: _25  and  _26
REMARK   12  A    between atoms: _31  and  _33
REMARK   13  A    between atoms: _33  and  _34
REMARK   14  A    between atoms: _33  and  _36
REMARK   15  A    between atoms: _36  and  _37
REMARK   16  A    between atoms: _37  and  _38
REMARK   17  A    between atoms: _43  and  _45
REMARK   18  A    between atoms: _45  and  _46
REMARK   19  A    between atoms: _45  and  _48
REMARK   20  A    between atoms: _48  and  _49
REMARK   21  A    between atoms: _52  and  _54
REMARK   22  A    between atoms: _54  and  _55
REMARK   23  A    between atoms: _54  and  _57
REMARK   24  A    between atoms: _57  and  _58
REMARK   25  A    between atoms: _58  and  _59
REMARK   26  A    between atoms: _59  and  _60
REMARK   27  A    between atoms: _60  and  _61
REMARK   28  A    between atoms: _65  and  _67
REMARK   29  A    between atoms: _67  and  _68
REMARK   30  A    between atoms: _67  and  _70
REMARK   31  A    between atoms: _70  and  _71
REMARK   32  A    between atoms: _71  and  _72
REMARK   33  A    between atoms: _75  and  _77
REMARK   34  A    between atoms: _77  and  _78
REMARK   35  A    between atoms: _77  and  _80
REMARK   36  A    between atoms: _80  and  _81
REMARK   37  A    between atoms: _84  and  _86
REMARK   38  A    between atoms: _86  and  _87
REMARK   39  A    between atoms: _86  and  _89
REMARK   40  A    between atoms: _89  and  _90
REMARK   41  A    between atoms: _95  and  _96
REMARK   42  A    between atoms: _98  and  _100
REMARK   43  A    between atoms: _100  and  _101
REMARK   44  A    between atoms: _100  and  _103
REMARK   45  A    between atoms: _103  and  _104
REMARK   46  A    between atoms: _107  and  _109
REMARK   47  A    between atoms: _109  and  _110
REMARK   48  A    between atoms: _109  and  _112
REMARK   49  A    between atoms: _112  and  _113
REMARK   50  A    between atoms: _116  and  _118
REMARK   51  A    between atoms: _118  and  _119
REMARK   52  A    between atoms: _118  and  _121
REMARK   53  A    between atoms: _124  and  _126
REMARK   54  A    between atoms: _126  and  _127
REMARK   55  A    between atoms: _126  and  _129
REMARK   56  A    between atoms: _129  and  _130
REMARK   57  A    between atoms: _130  and  _131
REMARK   58  A    between atoms: _131  and  _132
REMARK   59  A    between atoms: _141  and  _143
REMARK   60  A    between atoms: _143  and  _144
REMARK   61  A    between atoms: _143  and  _146
REMARK   62  A    between atoms: _146  and  _147
REMARK   63  A    between atoms: _152  and  _154
REMARK   64  A    between atoms: _154  and  _155
REMARK   65  A    between atoms: _154  and  _157
REMARK   66  A    between atoms: _157  and  _158
REMARK   67  A    between atoms: _158  and  _159
REMARK   68  A    between atoms: _162  and  _164
REMARK   69  A    between atoms: _164  and  _165
REMARK   70  A    between atoms: _164  and  _167
REMARK   71  A    between atoms: _167  and  _168
REMARK   72  A    between atoms: _168  and  _169
REMARK   73  A    between atoms: _169  and  _170
REMARK   74  A    between atoms: _170  and  _171
REMARK   75  A    between atoms: _175  and  _177
REMARK   76  A    between atoms: _177  and  _178
REMARK   77  A    between atoms: _180  and  _182
REMARK   78  A    between atoms: _182  and  _183
REMARK   79  A    between atoms: _182  and  _185
REMARK   80  A    between atoms: _185  and  _186
REMARK   81  A    between atoms: _186  and  _187
REMARK   82  A    between atoms: _192  and  _194
REMARK   83  A    between atoms: _194  and  _195
REMARK   84  A    between atoms: _194  and  _197
REMARK   85  A    between atoms: _200  and  _202
REMARK   86  A    between atoms: _202  and  _203
REMARK   87  A    between atoms: _202  and  _205
REMARK   88  A    between atoms: _205  and  _206
REMARK   89  A    between atoms: _208  and  _210
REMARK   90  A    between atoms: _210  and  _211
REMARK   91  A    between atoms: _210  and  _213
REMARK   92  A    between atoms: _213  and  _214
REMARK   93  A    between atoms: _216  and  _218
REMARK   94  A    between atoms: _218  and  _219
REMARK   95  A    between atoms: _218  and  _221
REMARK   96  A    between atoms: _221  and  _222
REMARK   97  A    between atoms: _228  and  _230
REMARK   98  A    between atoms: _230  and  _231
REMARK   99  A    between atoms: _230  and  _233
REMARK  100  A    between atoms: _233  and  _234
REMARK  101  A    between atoms: _237  and  _239
REMARK  102  A    between atoms: _239  and  _240
REMARK  103  A    between atoms: _239  and  _242
REMARK  104  A    between atoms: _242  and  _243
REMARK  105  A    between atoms: _246  and  _248
REMARK  106  A    between atoms: _248  and  _249
REMARK  107  A    between atoms: _248  and  _251
REMARK  108  A    between atoms: _251  and  _252
REMARK  109  A    between atoms: _255  and  _257
REMARK  110  A    between atoms: _257  and  _258
REMARK  111  A    between atoms: _257  and  _260
REMARK  112  A    between atoms: _260  and  _261
REMARK  113  A    between atoms: _261  and  _262
REMARK  114  A    between atoms: _264  and  _266
REMARK  115  A    between atoms: _266  and  _267
REMARK  116  A    between atoms: _266  and  _269
REMARK  117  A    between atoms: _269  and  _270
REMARK  118  A    between atoms: _276  and  _278
REMARK  119  A    between atoms: _278  and  _279
REMARK  120  A    between atoms: _278  and  _281
REMARK  121  A    between atoms: _283  and  _285
REMARK  122  A    between atoms: _285  and  _286
REMARK  123  A    between atoms: _289  and  _291
REMARK  124  A    between atoms: _291  and  _292
REMARK  125  A    between atoms: _294  and  _296
REMARK  126  A    between atoms: _296  and  _297
REMARK  127  A    between atoms: _296  and  _299
REMARK  128  A    between atoms: _299  and  _300
REMARK  129  A    between atoms: _300  and  _301
REMARK  130  A    between atoms: _304  and  _306
REMARK  131  A    between atoms: _306  and  _307
REMARK  132  A    between atoms: _306  and  _309
REMARK  133  A    between atoms: _309  and  _310
REMARK  134  A    between atoms: _313  and  _315
REMARK  135  A    between atoms: _315  and  _316
REMARK  136  A    between atoms: _319  and  _321
REMARK  137  A    between atoms: _321  and  _322
REMARK  138  A    between atoms: _321  and  _324
REMARK  139  A    between atoms: _324  and  _325
REMARK  140  A    between atoms: _325  and  _448
REMARK  141  A    between atoms: _326  and  _328
REMARK  142  A    between atoms: _328  and  _329
REMARK  143  A    between atoms: _328  and  _331
REMARK  144  A    between atoms: _331  and  _332
REMARK  145  A    between atoms: _332  and  _333
REMARK  146  A    between atoms: _338  and  _340
REMARK  147  A    between atoms: _340  and  _341
REMARK  148  A    between atoms: _343  and  _345
REMARK  149  A    between atoms: _345  and  _346
REMARK  150  A    between atoms: _345  and  _348
REMARK  151  A    between atoms: _348  and  _349
REMARK  152  A    between atoms: _352  and  _354
REMARK  153  A    between atoms: _354  and  _355
REMARK  154  A    between atoms: _354  and  _357
REMARK  155  A    between atoms: _357  and  _358
REMARK  156  A    between atoms: _360  and  _362
REMARK  157  A    between atoms: _362  and  _363
REMARK  158  A    between atoms: _365  and  _367
REMARK  159  A    between atoms: _367  and  _368
REMARK  160  A    between atoms: _370  and  _372
REMARK  161  A    between atoms: _372  and  _373
REMARK  162  A    between atoms: _372  and  _375
REMARK  163  A    between atoms: _375  and  _376
REMARK  164  A    between atoms: _381  and  _383
REMARK  165  A    between atoms: _383  and  _384
REMARK  166  A    between atoms: _383  and  _386
REMARK  167  A    between atoms: _386  and  _387
REMARK  168  A    between atoms: _390  and  _392
REMARK  169  A    between atoms: _392  and  _393
REMARK  170  A    between atoms: _392  and  _395
REMARK  171  A    between atoms: _398  and  _400
REMARK  172  A    between atoms: _400  and  _401
REMARK  173  A    between atoms: _400  and  _403
REMARK  174  A    between atoms: _403  and  _404
REMARK  175  A    between atoms: _406  and  _408
REMARK  176  A    between atoms: _408  and  _409
REMARK  177  A    between atoms: _408  and  _411
REMARK  178  A    between atoms: _411  and  _412
REMARK  179  A    between atoms: _422  and  _424
REMARK  180  A    between atoms: _424  and  _425
REMARK  181  A    between atoms: _427  and  _429
REMARK  182  A    between atoms: _429  and  _430
REMARK  183  A    between atoms: _429  and  _432
REMARK  184  A    between atoms: _432  and  _433
REMARK  185  A    between atoms: _433  and  _434
REMARK  186  A    between atoms: _437  and  _439
REMARK  187  A    between atoms: _439  and  _440
REMARK  188  A    between atoms: _442  and  _444
REMARK  189  A    between atoms: _444  and  _445
REMARK  190  A    between atoms: _444  and  _447
REMARK  191  A    between atoms: _447  and  _448
REMARK  192  A    between atoms: _449  and  _451
REMARK  193  A    between atoms: _451  and  _452
REMARK  194  A    between atoms: _455  and  _457
REMARK  195  A    between atoms: _457  and  _458
REMARK  196  A    between atoms: _457  and  _460
REMARK  197  A    between atoms: _460  and  _461
REMARK  198  A    between atoms: _461  and  _462
REMARK  199  A    between atoms: _462  and  _463
REMARK  200  A    between atoms: _472  and  _474
REMARK  201  A    between atoms: _474  and  _475
REMARK  202  A    between atoms: _474  and  _477
REMARK  203  A    between atoms: _477  and  _478
REMARK  204  A    between atoms: _478  and  _479
REMARK  205  A    between atoms: _479  and  _480
REMARK  206  A    between atoms: _480  and  _481
REMARK  207  A    between atoms: _485  and  _487
REMARK  208  A    between atoms: _487  and  _488
REMARK  209  A    between atoms: _487  and  _490
REMARK  210  A    between atoms: _490  and  _491
REMARK  211  A    between atoms: _496  and  _497
REMARK  212  A    between atoms: _499  and  _501
REMARK  213  A    between atoms: _501  and  _502
REMARK  214  A    between atoms: _504  and  _506
REMARK  215  A    between atoms: _506  and  _507
REMARK  216  A    between atoms: _506  and  _509
REMARK  217  A    between atoms: _509  and  _510
REMARK  218  A    between atoms: _513  and  _515
REMARK  219  A    between atoms: _515  and  _516
REMARK  220  A    between atoms: _515  and  _518
REMARK  221  A    between atoms: _518  and  _519
REMARK  222  A    between atoms: _524  and  _525
REMARK  223  A    between atoms: _527  and  _529
REMARK  224  A    between atoms: _529  and  _530
REMARK  225  A    between atoms: _529  and  _532
REMARK  226  A    between atoms: _532  and  _533
REMARK                            x       y       z     vdW  Elec       q    Type
REMARK                         _______ _______ _______ _____ _____    ______ ____
ROOT
ATOM      1  CA  ASP A   1      15.379  53.650  -1.183  0.00  0.00    +0.144 C 
ENDROOT
BRANCH   1   2
ATOM      2  N   ASP A   1      15.062  52.321  -0.598  0.00  0.00    -0.239 NA
ATOM      3  H   ASP A   1      14.979  52.220   0.434  0.00  0.00    +0.142 HD
ENDBRANCH   1   2
BRANCH   1   4
ATOM      4  C   ASP A   1      16.866  53.819  -1.458  0.00  0.00    +0.225 C 
ATOM      5  O   ASP A   1      17.595  54.498  -0.713  0.00  0.00    -0.287 OA
ENDBRANCH   1   4
BRANCH   1   6
ATOM      6  CB  ASP A   1      14.833  54.754  -0.270  0.00  0.00    +0.139 C 
BRANCH   6   7
ATOM      7  CG  ASP A   1      14.799  56.116  -0.958  0.00  0.00    +0.367 C 
ATOM      8  OD2 ASP A   1      14.595  57.135  -0.251  0.00  0.00    -0.246 OA
ATOM      9  OD1 ASP A   1      14.986  56.136  -2.193  0.00  0.00    -0.246 OA
ENDBRANCH   6   7
ENDBRANCH   1   6
TORSDOF 4
REMARK  Name = ../refined-set-2016/2vwn/2vwn_pocket.pdb
REMARK  226 active torsions:
REMARK  status: ('A' for Active; 'I' for Inactive)
REMARK    1  A    between atoms: _1  and  _5
REMARK    2  A    between atoms: _5  and  _6
REMARK    3  A    between atoms: _5  and  _8
REMARK    4  A    between atoms: _8  and  _9
REMARK    5  A    between atoms: _12  and  _14
REMARK    6  A    between atoms: _14  and  _15
REMARK    7  A    between atoms: _14  and  _17
REMARK    8  A    between atoms: _20  and  _22
REMARK    9  A    between atoms: _22  and  _23
REMARK   10  A    between atoms: _22  and  _25
REMARK   11  A    between atoms: _25  and  _26
REMARK   12  A    between atoms: _31  and  _33
REMARK   13  A    between atoms: _33  and  _34
REMARK   14  A    between atoms: _33  and  _36
REMARK   15  A    between atoms: _36  and  _37
REMARK   16  A    between atoms: _37  and  _38
REMARK   17  A    between atoms: _43  and  _45
REMARK   18  A    between atoms: _45  and  _46
REMARK   19  A    between atoms: _45  and  _48
REMARK   20  A    between atoms: _48  and  _49
REMARK   21  A    between atoms: _52  and  _54
REMARK   22  A    between atoms: _54  and  _55
REMARK   23  A    between atoms: _54  and  _57
REMARK   24  A    between atoms: _57  and  _58
REMARK   25  A    between atoms: _58  and  _59
REMARK   26  A    between atoms: _59  and  _60
REMARK   27  A    between atoms: _60  and  _61
REMARK   28  A    between atoms: _65  and  _67
REMARK   29  A    between atoms: _67  and  _68
REMARK   30  A    between atoms: _67  and  _70
REMARK   31  A    between atoms: _70  and  _71
REMARK   32  A    between atoms: _71  and  _72
REMARK   33  A    between atoms: _75  and  _77
REMARK   34  A    between atoms: _77  and  _78
REMARK   35  A    between atoms: _77  and  _80
REMARK   36  A    between atoms: _80  and  _81
REMARK   37  A    between atoms: _84  and  _86
REMARK   38  A    between atoms: _86  and  _87
REMARK   39  A    between atoms: _86  and  _89
REMARK   40  A    between atoms: _89  and  _90
REMARK   41  A    between atoms: _95  and  _96
REMARK   42  A    between atoms: _98  and  _100
REMARK   43  A    between atoms: _100  and  _101
REMARK   44  A    between atoms: _100  and  _103
REMARK   45  A    between atoms: _103  and  _104
REMARK   46  A    between atoms: _107  and  _109
REMARK   47  A    between atoms: _109  and  _110
REMARK   48  A    between atoms: _109  and  _112
REMARK   49  A    between atoms: _112  and  _113
REMARK   50  A    between atoms: _116  and  _118
REMARK   51  A    between atoms: _118  and  _119
REMARK   52  A    between atoms: _118  and  _121
REMARK   53  A    between atoms: _124  and  _126
REMARK   54  A    between atoms: _126  and  _127
REMARK   55  A    between atoms: _126  and  _129
REMARK   56  A    between atoms: _129  and  _130
REMARK   57  A    between atoms: _130  and  _131
REMARK   58  A    between atoms: _131  and  _132
REMARK   59  A    between atoms: _141  and  _143
REMARK   60  A    between atoms: _143  and  _144
REMARK   61  A    between atoms: _143  and  _146
REMARK   62  A    between atoms: _146  and  _147
REMARK   63  A    between atoms: _152  and  _154
REMARK   64  A    between atoms: _154  and  _155
REMARK   65  A    between atoms: _154  and  _157
REMARK   66  A    between atoms: _157  and  _158
REMARK   67  A    between atoms: _158  and  _159
REMARK   68  A    between atoms: _162  and  _164
REMARK   69  A    between atoms: _164  and  _165
REMARK   70  A    between atoms: _164  and  _167
REMARK   71  A    between atoms: _167  and  _168
REMARK   72  A    between atoms: _168  and  _169
REMARK   73  A    between atoms: _169  and  _170
REMARK   74  A    between atoms: _170  and  _171
REMARK   75  A    between atoms: _175  and  _177
REMARK   76  A    between atoms: _177  and  _178
REMARK   77  A    between atoms: _180  and  _182
REMARK   78  A    between atoms: _182  and  _183
REMARK   79  A    between atoms: _182  and  _185
REMARK   80  A    between atoms: _185  and  _186
REMARK   81  A    between atoms: _186  and  _187
REMARK   82  A    between atoms: _192  and  _194
REMARK   83  A    between atoms: _194  and  _195
REMARK   84  A    between atoms: _194  and  _197
REMARK   85  A    between atoms: _200  and  _202
REMARK   86  A    between atoms: _202  and  _203
REMARK   87  A    between atoms: _202  and  _205
REMARK   88  A    between atoms: _205  and  _206
REMARK   89  A    between atoms: _208  and  _210
REMARK   90  A    between atoms: _210  and  _211
REMARK   91  A    between atoms: _210  and  _213
REMARK   92  A    between atoms: _213  and  _214
REMARK   93  A    between atoms: _216  and  _218
REMARK   94  A    between atoms: _218  and  _219
REMARK   95  A    between atoms: _218  and  _221
REMARK   96  A    between atoms: _221  and  _222
REMARK   97  A    between atoms: _228  and  _230
REMARK   98  A    between atoms: _230  and  _231
REMARK   99  A    between atoms: _230  and  _233
REMARK  100  A    between atoms: _233  and  _234
REMARK  101  A    between atoms: _237  and  _239
REMARK  102  A    between atoms: _239  and  _240
REMARK  103  A    between atoms: _239  and  _242
REMARK  104  A    between atoms: _242  and  _243
REMARK  105  A    between atoms: _246  and  _248
REMARK  106  A    between atoms: _248  and  _249
REMARK  107  A    between atoms: _248  and  _251
REMARK  108  A    between atoms: _251  and  _252
REMARK  109  A    between atoms: _255  and  _257
REMARK  110  A    between atoms: _257  and  _258
REMARK  111  A    between atoms: _257  and  _260
REMARK  112  A    between atoms: _260  and  _261
REMARK  113  A    between atoms: _261  and  _262
REMARK  114  A    between atoms: _264  and  _266
REMARK  115  A    between atoms: _266  and  _267
REMARK  116  A    between atoms: _266  and  _269
REMARK  117  A    between atoms: _269  and  _270
REMARK  118  A    between atoms: _276  and  _278
REMARK  119  A    between atoms: _278  and  _279
REMARK  120  A    between atoms: _278  and  _281
REMARK  121  A    between atoms: _283  and  _285
REMARK  122  A    between atoms: _285  and  _286
REMARK  123  A    between atoms: _289  and  _291
REMARK  124  A    between atoms: _291  and  _292
REMARK  125  A    between atoms: _294  and  _296
REMARK  126  A    between atoms: _296  and  _297
REMARK  127  A    between atoms: _296  and  _299
REMARK  128  A    between atoms: _299  and  _300
REMARK  129  A    between atoms: _300  and  _301
REMARK  130  A    between atoms: _304  and  _306
REMARK  131  A    between atoms: _306  and  _307
REMARK  132  A    between atoms: _306  and  _309
REMARK  133  A    between atoms: _309  and  _310
REMARK  134  A    between atoms: _313  and  _315
REMARK  135  A    between atoms: _315  and  _316
REMARK  136  A    between atoms: _319  and  _321
REMARK  137  A    between atoms: _321  and  _322
REMARK  138  A    between atoms: _321  and  _324
REMARK  139  A    between atoms: _324  and  _325
REMARK  140  A    between atoms: _325  and  _448
REMARK  141  A    between atoms: _326  and  _328
REMARK  142  A    between atoms: _328  and  _329
REMARK  143  A    between atoms: _328  and  _331
REMARK  144  A    between atoms: _331  and  _332
REMARK  145  A    between atoms: _332  and  _333
REMARK  146  A    between atoms: _338  and  _340
REMARK  147  A    between atoms: _340  and  _341
REMARK  148  A    between atoms: _343  and  _345
REMARK  149  A    between atoms: _345  and  _346
REMARK  150  A    between atoms: _345  and  _348
REMARK  151  A    between atoms: _348  and  _349
REMARK  152  A    between atoms: _352  and  _354
REMARK  153  A    between atoms: _354  and  _355
REMARK  154  A    between atoms: _354  and  _357
REMARK  155  A    between atoms: _357  and  _358
REMARK  156  A    between atoms: _360  and  _362
REMARK  157  A    between atoms: _362  and  _363
REMARK  158  A    between atoms: _365  and  _367
REMARK  159  A    between atoms: _367  and  _368
REMARK  160  A    between atoms: _370  and  _372
REMARK  161  A    between atoms: _372  and  _373
REMARK  162  A    between atoms: _372  and  _375
REMARK  163  A    between atoms: _375  and  _376
REMARK  164  A    between atoms: _381  and  _383
REMARK  165  A    between atoms: _383  and  _384
REMARK  166  A    between atoms: _383  and  _386
REMARK  167  A    between atoms: _386  and  _387
REMARK  168  A    between atoms: _390  and  _392
REMARK  169  A    between atoms: _392  and  _393
REMARK  170  A    between atoms: _392  and  _395
REMARK  171  A    between atoms: _398  and  _400
REMARK  172  A    between atoms: _400  and  _401
REMARK  173  A    between atoms: _400  and  _403
REMARK  174  A    between atoms: _403  and  _404
REMARK  175  A    between atoms: _406  and  _408
REMARK  176  A    between atoms: _408  and  _409
REMARK  177  A    between atoms: _408  and  _411
REMARK  178  A    between atoms: _411  and  _412
REMARK  179  A    between atoms: _422  and  _424
REMARK  180  A    between atoms: _424  and  _425
REMARK  181  A    between atoms: _427  and  _429
REMARK  182  A    between atoms: _429  and  _430
REMARK  183  A    between atoms: _429  and  _432
REMARK  184  A    between atoms: _432  and  _433
REMARK  185  A    between atoms: _433  and  _434
REMARK  186  A    between atoms: _437  and  _439
REMARK  187  A    between atoms: _439  and  _440
REMARK  188  A    between atoms: _442  and  _444
REMARK  189  A    between atoms: _444  and  _445
REMARK  190  A    between atoms: _444  and  _447
REMARK  191  A    between atoms: _447  and  _448
REMARK  192  A    between atoms: _449  and  _451
REMARK  193  A    between atoms: _451  and  _452
REMARK  194  A    between atoms: _455  and  _457
REMARK  195  A    between atoms: _457  and  _458
REMARK  196  A    between atoms: _457  and  _460
REMARK  197  A    between atoms: _460  and  _461
REMARK  198  A    between atoms: _461  and  _462
REMARK  199  A    between atoms: _462  and  _463
REMARK  200  A    between atoms: _472  and  _474
REMARK  201  A    between atoms: _474  and  _475
REMARK  202  A    between atoms: _474  and  _477
REMARK  203  A    between atoms: _477  and  _478
REMARK  204  A    between atoms: _478  and  _479
REMARK  205  A    between atoms: _479  and  _480
REMARK  206  A    between atoms: _480  and  _481
REMARK  207  A    between atoms: _485  and  _487
REMARK  208  A    between atoms: _487  and  _488
REMARK  209  A    between atoms: _487  and  _490
REMARK  210  A    between atoms: _490  and  _491
REMARK  211  A    between atoms: _496  and  _497
REMARK  212  A    between atoms: _499  and  _501
REMARK  213  A    between atoms: _501  and  _502
REMARK  214  A    between atoms: _504  and  _506
REMARK  215  A    between atoms: _506  and  _507
REMARK  216  A    between atoms: _506  and  _509
REMARK  217  A    between atoms: _509  and  _510
REMARK  218  A    between atoms: _513  and  _515
REMARK  219  A    between atoms: _515  and  _516
REMARK  220  A    between atoms: _515  and  _518
REMARK  221  A    between atoms: _518  and  _519
REMARK  222  A    between atoms: _524  and  _525
REMARK  223  A    between atoms: _527  and  _529
REMARK  224  A    between atoms: _529  and  _530
REMARK  225  A    between atoms: _529  and  _532
REMARK  226  A    between atoms: _532  and  _533
REMARK                            x       y       z     vdW  Elec       q    Type
REMARK                         _______ _______ _______ _____ _____    ______ ____
ROOT
ATOM      1  CA  VAL A   1      24.881  63.429   7.806  0.00  0.00    +0.133 C 
ENDROOT
BRANCH   1   2
ATOM      2  CB  VAL A   1      23.350  63.347   8.043  0.00  0.00    +0.023 C 
ATOM      3  CG2 VAL A   1      22.856  64.433   9.011  0.00  0.00    +0.002 C 
ATOM      4  CG1 VAL A   1      22.603  63.410   6.715  0.00  0.00    +0.002 C 
ENDBRANCH   1   2
BRANCH   1   5
ATOM      5  N   VAL A   1      25.635  63.219   9.054  0.00  0.00    -0.239 NA
ATOM      6  H   VAL A   1      25.420  63.818   9.877  0.00  0.00    +0.142 HD
ENDBRANCH   1   5
BRANCH   1   7
ATOM      7  C   VAL A   1      25.308  64.770   7.188  0.00  0.00    +0.224 C 
ATOM      8  O   VAL A   1      25.655  65.717   7.898  0.00  0.00    -0.287 OA
ENDBRANCH   1   7
TORSDOF 3
REMARK  Name = ../refined-set-2016/2vwn/2vwn_pocket.pdb
REMARK  226 active torsions:
REMARK  status: ('A' for Active; 'I' for Inactive)
REMARK    1  A    between atoms: _1  and  _5
REMARK    2  A    between atoms: _5  and  _6
REMARK    3  A    between atoms: _5  and  _8
REMARK    4  A    between atoms: _8  and  _9
REMARK    5  A    between atoms: _12  and  _14
REMARK    6  A    between atoms: _14  and  _15
REMARK    7  A    between atoms: _14  and  _17
REMARK    8  A    between atoms: _20  and  _22
REMARK    9  A    between atoms: _22  and  _23
REMARK   10  A    between atoms: _22  and  _25
REMARK   11  A    between atoms: _25  and  _26
REMARK   12  A    between atoms: _31  and  _33
REMARK   13  A    between atoms: _33  and  _34
REMARK   14  A    between atoms: _33  and  _36
REMARK   15  A    between atoms: _36  and  _37
REMARK   16  A    between atoms: _37  and  _38
REMARK   17  A    between atoms: _43  and  _45
REMARK   18  A    between atoms: _45  and  _46
REMARK   19  A    between atoms: _45  and  _48
REMARK   20  A    between atoms: _48  and  _49
REMARK   21  A    between atoms: _52  and  _54
REMARK   22  A    between atoms: _54  and  _55
REMARK   23  A    between atoms: _54  and  _57
REMARK   24  A    between atoms: _57  and  _58
REMARK   25  A    between atoms: _58  and  _59
REMARK   26  A    between atoms: _59  and  _60
REMARK   27  A    between atoms: _60  and  _61
REMARK   28  A    between atoms: _65  and  _67
REMARK   29  A    between atoms: _67  and  _68
REMARK   30  A    between atoms: _67  and  _70
REMARK   31  A    between atoms: _70  and  _71
REMARK   32  A    between atoms: _71  and  _72
REMARK   33  A    between atoms: _75  and  _77
REMARK   34  A    between atoms: _77  and  _78
REMARK   35  A    between atoms: _77  and  _80
REMARK   36  A    between atoms: _80  and  _81
REMARK   37  A    between atoms: _84  and  _86
REMARK   38  A    between atoms: _86  and  _87
REMARK   39  A    between atoms: _86  and  _89
REMARK   40  A    between atoms: _89  and  _90
REMARK   41  A    between atoms: _95  and  _96
REMARK   42  A    between atoms: _98  and  _100
REMARK   43  A    between atoms: _100  and  _101
REMARK   44  A    between atoms: _100  and  _103
REMARK   45  A    between atoms: _103  and  _104
REMARK   46  A    between atoms: _107  and  _109
REMARK   47  A    between atoms: _109  and  _110
REMARK   48  A    between atoms: _109  and  _112
REMARK   49  A    between atoms: _112  and  _113
REMARK   50  A    between atoms: _116  and  _118
REMARK   51  A    between atoms: _118  and  _119
REMARK   52  A    between atoms: _118  and  _121
REMARK   53  A    between atoms: _124  and  _126
REMARK   54  A    between atoms: _126  and  _127
REMARK   55  A    between atoms: _126  and  _129
REMARK   56  A    between atoms: _129  and  _130
REMARK   57  A    between atoms: _130  and  _131
REMARK   58  A    between atoms: _131  and  _132
REMARK   59  A    between atoms: _141  and  _143
REMARK   60  A    between atoms: _143  and  _144
REMARK   61  A    between atoms: _143  and  _146
REMARK   62  A    between atoms: _146  and  _147
REMARK   63  A    between atoms: _152  and  _154
REMARK   64  A    between atoms: _154  and  _155
REMARK   65  A    between atoms: _154  and  _157
REMARK   66  A    between atoms: _157  and  _158
REMARK   67  A    between atoms: _158  and  _159
REMARK   68  A    between atoms: _162  and  _164
REMARK   69  A    between atoms: _164  and  _165
REMARK   70  A    between atoms: _164  and  _167
REMARK   71  A    between atoms: _167  and  _168
REMARK   72  A    between atoms: _168  and  _169
REMARK   73  A    between atoms: _169  and  _170
REMARK   74  A    between atoms: _170  and  _171
REMARK   75  A    between atoms: _175  and  _177
REMARK   76  A    between atoms: _177  and  _178
REMARK   77  A    between atoms: _180  and  _182
REMARK   78  A    between atoms: _182  and  _183
REMARK   79  A    between atoms: _182  and  _185
REMARK   80  A    between atoms: _185  and  _186
REMARK   81  A    between atoms: _186  and  _187
REMARK   82  A    between atoms: _192  and  _194
REMARK   83  A    between atoms: _194  and  _195
REMARK   84  A    between atoms: _194  and  _197
REMARK   85  A    between atoms: _200  and  _202
REMARK   86  A    between atoms: _202  and  _203
REMARK   87  A    between atoms: _202  and  _205
REMARK   88  A    between atoms: _205  and  _206
REMARK   89  A    between atoms: _208  and  _210
REMARK   90  A    between atoms: _210  and  _211
REMARK   91  A    between atoms: _210  and  _213
REMARK   92  A    between atoms: _213  and  _214
REMARK   93  A    between atoms: _216  and  _218
REMARK   94  A    between atoms: _218  and  _219
REMARK   95  A    between atoms: _218  and  _221
REMARK   96  A    between atoms: _221  and  _222
REMARK   97  A    between atoms: _228  and  _230
REMARK   98  A    between atoms: _230  and  _231
REMARK   99  A    between atoms: _230  and  _233
REMARK  100  A    between atoms: _233  and  _234
REMARK  101  A    between atoms: _237  and  _239
REMARK  102  A    between atoms: _239  and  _240
REMARK  103  A    between atoms: _239  and  _242
REMARK  104  A    between atoms: _242  and  _243
REMARK  105  A    between atoms: _246  and  _248
REMARK  106  A    between atoms: _248  and  _249
REMARK  107  A    between atoms: _248  and  _251
REMARK  108  A    between atoms: _251  and  _252
REMARK  109  A    between atoms: _255  and  _257
REMARK  110  A    between atoms: _257  and  _258
REMARK  111  A    between atoms: _257  and  _260
REMARK  112  A    between atoms: _260  and  _261
REMARK  113  A    between atoms: _261  and  _262
REMARK  114  A    between atoms: _264  and  _266
REMARK  115  A    between atoms: _266  and  _267
REMARK  116  A    between atoms: _266  and  _269
REMARK  117  A    between atoms: _269  and  _270
REMARK  118  A    between atoms: _276  and  _278
REMARK  119  A    between atoms: _278  and  _279
REMARK  120  A    between atoms: _278  and  _281
REMARK  121  A    between atoms: _283  and  _285
REMARK  122  A    between atoms: _285  and  _286
REMARK  123  A    between atoms: _289  and  _291
REMARK  124  A    between atoms: _291  and  _292
REMARK  125  A    between atoms: _294  and  _296
REMARK  126  A    between atoms: _296  and  _297
REMARK  127  A    between atoms: _296  and  _299
REMARK  128  A    between atoms: _299  and  _300
REMARK  129  A    between atoms: _300  and  _301
REMARK  130  A    between atoms: _304  and  _306
REMARK  131  A    between atoms: _306  and  _307
REMARK  132  A    between atoms: _306  and  _309
REMARK  133  A    between atoms: _309  and  _310
REMARK  134  A    between atoms: _313  and  _315
REMARK  135  A    between atoms: _315  and  _316
REMARK  136  A    between atoms: _319  and  _321
REMARK  137  A    between atoms: _321  and  _322
REMARK  138  A    between atoms: _321  and  _324
REMARK  139  A    between atoms: _324  and  _325
REMARK  140  A    between atoms: _325  and  _448
REMARK  141  A    between atoms: _326  and  _328
REMARK  142  A    between atoms: _328  and  _329
REMARK  143  A    between atoms: _328  and  _331
REMARK  144  A    between atoms: _331  and  _332
REMARK  145  A    between atoms: _332  and  _333
REMARK  146  A    between atoms: _338  and  _340
REMARK  147  A    between atoms: _340  and  _341
REMARK  148  A    between atoms: _343  and  _345
REMARK  149  A    between atoms: _345  and  _346
REMARK  150  A    between atoms: _345  and  _348
REMARK  151  A    between atoms: _348  and  _349
REMARK  152  A    between atoms: _352  and  _354
REMARK  153  A    between atoms: _354  and  _355
REMARK  154  A    between atoms: _354  and  _357
REMARK  155  A    between atoms: _357  and  _358
REMARK  156  A    between atoms: _360  and  _362
REMARK  157  A    between atoms: _362  and  _363
REMARK  158  A    between atoms: _365  and  _367
REMARK  159  A    between atoms: _367  and  _368
REMARK  160  A    between atoms: _370  and  _372
REMARK  161  A    between atoms: _372  and  _373
REMARK  162  A    between atoms: _372  and  _375
REMARK  163  A    between atoms: _375  and  _376
REMARK  164  A    between atoms: _381  and  _383
REMARK  165  A    between atoms: _383  and  _384
REMARK  166  A    between atoms: _383  and  _386
REMARK  167  A    between atoms: _386  and  _387
REMARK  168  A    between atoms: _390  and  _392
REMARK  169  A    between atoms: _392  and  _393
REMARK  170  A    between atoms: _392  and  _395
REMARK  171  A    between atoms: _398  and  _400
REMARK  172  A    between atoms: _400  and  _401
REMARK  173  A    between atoms: _400  and  _403
REMARK  174  A    between atoms: _403  and  _404
REMARK  175  A    between atoms: _406  and  _408
REMARK  176  A    between atoms: _408  and  _409
REMARK  177  A    between atoms: _408  and  _411
REMARK  178  A    between atoms: _411  and  _412
REMARK  179  A    between atoms: _422  and  _424
REMARK  180  A    between atoms: _424  and  _425
REMARK  181  A    between atoms: _427  and  _429
REMARK  182  A    between atoms: _429  and  _430
REMARK  183  A    between atoms: _429  and  _432
REMARK  184  A    between atoms: _432  and  _433
REMARK  185  A    between atoms: _433  and  _434
REMARK  186  A    between atoms: _437  and  _439
REMARK  187  A    between atoms: _439  and  _440
REMARK  188  A    between atoms: _442  and  _444
REMARK  189  A    between atoms: _444  and  _445
REMARK  190  A    between atoms: _444  and  _447
REMARK  191  A    between atoms: _447  and  _448
REMARK  192  A    between atoms: _449  and  _451
REMARK  193  A    between atoms: _451  and  _452
REMARK  194  A    between atoms: _455  and  _457
REMARK  195  A    between atoms: _457  and  _458
REMARK  196  A    between atoms: _457  and  _460
REMARK  197  A    between atoms: _460  and  _461
REMARK  198  A    between atoms: _461  and  _462
REMARK  199  A    between atoms: _462  and  _463
REMARK  200  A    between atoms: _472  and  _474
REMARK  201  A    between atoms: _474  and  _475
REMARK  202  A    between atoms: _474  and  _477
REMARK  203  A    between atoms: _477  and  _478
REMARK  204  A    between atoms: _478  and  _479
REMARK  205  A    between atoms: _479  and  _480
REMARK  206  A    between atoms: _480  and  _481
REMARK  207  A    between atoms: _485  and  _487
REMARK  208  A    between atoms: _487  and  _488
REMARK  209  A    between atoms: _487  and  _490
REMARK  210  A    between atoms: _490  and  _491
REMARK  211  A    between atoms: _496  and  _497
REMARK  212  A    between atoms: _499  and  _501
REMARK  213  A    between atoms: _501  and  _502
REMARK  214  A    between atoms: _504  and  _506
REMARK  215  A    between atoms: _506  and  _507
REMARK  216  A    between atoms: _506  and  _509
REMARK  217  A    between atoms: _509  and  _510
REMARK  218  A    between atoms: _513  and  _515
REMARK  219  A    between atoms: _515  and  _516
REMARK  220  A    between atoms: _515  and  _518
REMARK  221  A    between atoms: _518  and  _519
REMARK  222  A    between atoms: _524  and  _525
REMARK  223  A    between atoms: _527  and  _529
REMARK  224  A    between atoms: _529  and  _530
REMARK  225  A    between atoms: _529  and  _532
REMARK  226  A    between atoms: _532  and  _533
REMARK                            x       y       z     vdW  Elec       q    Type
REMARK                         _______ _______ _______ _____ _____    ______ ____
ROOT
ATOM      1  NE  ARG A   1      12.732  73.635   1.127  0.00  0.00    -0.265 N 
ATOM      2  CZ  ARG A   1      11.463  73.968   0.970  0.00  0.00    +0.342 C 
ATOM      3  NH2 ARG A   1      10.677  74.149   2.027  0.00  0.00    -0.292 N 
ATOM      4 HH21 ARG A   1      11.060  74.029   2.986  0.00  0.00    +0.255 HD
ATOM      5 HH22 ARG A   1       9.679  74.411   1.894  0.00  0.00    +0.255 HD
ATOM      6  NH1 ARG A   1      10.990  74.120  -0.258  0.00  0.00    -0.292 N 
ATOM      7 HH11 ARG A   1       9.994  74.382  -0.403  0.00  0.00    +0.255 HD
ATOM      8 HH12 ARG A   1      11.615  73.977  -1.077  0.00  0.00    +0.255 HD
ATOM      9  HE  ARG A   1      13.302  73.492   0.269  0.00  0.00    +0.259 HD
ENDROOT
BRANCH   1  10
ATOM     10  CD  ARG A   1      13.392  73.453   2.413  0.00  0.00    +0.174 C 
BRANCH  10  11
ATOM     11  CG  ARG A   1      14.894  73.593   2.238  0.00  0.00    +0.045 C 
BRANCH  11  12
ATOM     12  CB  ARG A   1      15.615  73.366   3.541  0.00  0.00    +0.029 C 
BRANCH  12  13
ATOM     13  CA  ARG A   1      17.129  73.502   3.451  0.00  0.00    +0.133 C 
BRANCH  13  14
ATOM     14  N   ARG A   1      17.704  72.368   2.722  0.00  0.00    -0.239 NA
ATOM     15  H   ARG A   1      17.065  71.672   2.287  0.00  0.00    +0.142 HD
ENDBRANCH  13  14
BRANCH  13  16
ATOM     16  C   ARG A   1      17.722  73.612   4.848  0.00  0.00    +0.224 C 
ATOM     17  O   ARG A   1      18.047  72.605   5.490  0.00  0.00    -0.287 OA
ENDBRANCH  13  16
ENDBRANCH  12  13
ENDBRANCH  11  12
ENDBRANCH  10  11
ENDBRANCH   1  10
TORSDOF 6
REMARK  Name = ../refined-set-2016/2vwn/2vwn_pocket.pdb
REMARK  226 active torsions:
REMARK  status: ('A' for Active; 'I' for Inactive)
REMARK    1  A    between atoms: _1  and  _5
REMARK    2  A    between atoms: _5  and  _6
REMARK    3  A    between atoms: _5  and  _8
REMARK    4  A    between atoms: _8  and  _9
REMARK    5  A    between atoms: _12  and  _14
REMARK    6  A    between atoms: _14  and  _15
REMARK    7  A    between atoms: _14  and  _17
REMARK    8  A    between atoms: _20  and  _22
REMARK    9  A    between atoms: _22  and  _23
REMARK   10  A    between atoms: _22  and  _25
REMARK   11  A    between atoms: _25  and  _26
REMARK   12  A    between atoms: _31  and  _33
REMARK   13  A    between atoms: _33  and  _34
REMARK   14  A    between atoms: _33  and  _36
REMARK   15  A    between atoms: _36  and  _37
REMARK   16  A    between atoms: _37  and  _38
REMARK   17  A    between atoms: _43  and  _45
REMARK   18  A    between atoms: _45  and  _46
REMARK   19  A    between atoms: _45  and  _48
REMARK   20  A    between atoms: _48  and  _49
REMARK   21  A    between atoms: _52  and  _54
REMARK   22  A    between atoms: _54  and  _55
REMARK   23  A    between atoms: _54  and  _57
REMARK   24  A    between atoms: _57  and  _58
REMARK   25  A    between atoms: _58  and  _59
REMARK   26  A    between atoms: _59  and  _60
REMARK   27  A    between atoms: _60  and  _61
REMARK   28  A    between atoms: _65  and  _67
REMARK   29  A    between atoms: _67  and  _68
REMARK   30  A    between atoms: _67  and  _70
REMARK   31  A    between atoms: _70  and  _71
REMARK   32  A    between atoms: _71  and  _72
REMARK   33  A    between atoms: _75  and  _77
REMARK   34  A    between atoms: _77  and  _78
REMARK   35  A    between atoms: _77  and  _80
REMARK   36  A    between atoms: _80  and  _81
REMARK   37  A    between atoms: _84  and  _86
REMARK   38  A    between atoms: _86  and  _87
REMARK   39  A    between atoms: _86  and  _89
REMARK   40  A    between atoms: _89  and  _90
REMARK   41  A    between atoms: _95  and  _96
REMARK   42  A    between atoms: _98  and  _100
REMARK   43  A    between atoms: _100  and  _101
REMARK   44  A    between atoms: _100  and  _103
REMARK   45  A    between atoms: _103  and  _104
REMARK   46  A    between atoms: _107  and  _109
REMARK   47  A    between atoms: _109  and  _110
REMARK   48  A    between atoms: _109  and  _112
REMARK   49  A    between atoms: _112  and  _113
REMARK   50  A    between atoms: _116  and  _118
REMARK   51  A    between atoms: _118  and  _119
REMARK   52  A    between atoms: _118  and  _121
REMARK   53  A    between atoms: _124  and  _126
REMARK   54  A    between atoms: _126  and  _127
REMARK   55  A    between atoms: _126  and  _129
REMARK   56  A    between atoms: _129  and  _130
REMARK   57  A    between atoms: _130  and  _131
REMARK   58  A    between atoms: _131  and  _132
REMARK   59  A    between atoms: _141  and  _143
REMARK   60  A    between atoms: _143  and  _144
REMARK   61  A    between atoms: _143  and  _146
REMARK   62  A    between atoms: _146  and  _147
REMARK   63  A    between atoms: _152  and  _154
REMARK   64  A    between atoms: _154  and  _155
REMARK   65  A    between atoms: _154  and  _157
REMARK   66  A    between atoms: _157  and  _158
REMARK   67  A    between atoms: _158  and  _159
REMARK   68  A    between atoms: _162  and  _164
REMARK   69  A    between atoms: _164  and  _165
REMARK   70  A    between atoms: _164  and  _167
REMARK   71  A    between atoms: _167  and  _168
REMARK   72  A    between atoms: _168  and  _169
REMARK   73  A    between atoms: _169  and  _170
REMARK   74  A    between atoms: _170  and  _171
REMARK   75  A    between atoms: _175  and  _177
REMARK   76  A    between atoms: _177  and  _178
REMARK   77  A    between atoms: _180  and  _182
REMARK   78  A    between atoms: _182  and  _183
REMARK   79  A    between atoms: _182  and  _185
REMARK   80  A    between atoms: _185  and  _186
REMARK   81  A    between atoms: _186  and  _187
REMARK   82  A    between atoms: _192  and  _194
REMARK   83  A    between atoms: _194  and  _195
REMARK   84  A    between atoms: _194  and  _197
REMARK   85  A    between atoms: _200  and  _202
REMARK   86  A    between atoms: _202  and  _203
REMARK   87  A    between atoms: _202  and  _205
REMARK   88  A    between atoms: _205  and  _206
REMARK   89  A    between atoms: _208  and  _210
REMARK   90  A    between atoms: _210  and  _211
REMARK   91  A    between atoms: _210  and  _213
REMARK   92  A    between atoms: _213  and  _214
REMARK   93  A    between atoms: _216  and  _218
REMARK   94  A    between atoms: _218  and  _219
REMARK   95  A    between atoms: _218  and  _221
REMARK   96  A    between atoms: _221  and  _222
REMARK   97  A    between atoms: _228  and  _230
REMARK   98  A    between atoms: _230  and  _231
REMARK   99  A    between atoms: _230  and  _233
REMARK  100  A    between atoms: _233  and  _234
REMARK  101  A    between atoms: _237  and  _239
REMARK  102  A    between atoms: _239  and  _240
REMARK  103  A    between atoms: _239  and  _242
REMARK  104  A    between atoms: _242  and  _243
REMARK  105  A    between atoms: _246  and  _248
REMARK  106  A    between atoms: _248  and  _249
REMARK  107  A    between atoms: _248  and  _251
REMARK  108  A    between atoms: _251  and  _252
REMARK  109  A    between atoms: _255  and  _257
REMARK  110  A    between atoms: _257  and  _258
REMARK  111  A    between atoms: _257  and  _260
REMARK  112  A    between atoms: _260  and  _261
REMARK  113  A    between atoms: _261  and  _262
REMARK  114  A    between atoms: _264  and  _266
REMARK  115  A    between atoms: _266  and  _267
REMARK  116  A    between atoms: _266  and  _269
REMARK  117  A    between atoms: _269  and  _270
REMARK  118  A    between atoms: _276  and  _278
REMARK  119  A    between atoms: _278  and  _279
REMARK  120  A    between atoms: _278  and  _281
REMARK  121  A    between atoms: _283  and  _285
REMARK  122  A    between atoms: _285  and  _286
REMARK  123  A    between atoms: _289  and  _291
REMARK  124  A    between atoms: _291  and  _292
REMARK  125  A    between atoms: _294  and  _296
REMARK  126  A    between atoms: _296  and  _297
REMARK  127  A    between atoms: _296  and  _299
REMARK  128  A    between atoms: _299  and  _300
REMARK  129  A    between atoms: _300  and  _301
REMARK  130  A    between atoms: _304  and  _306
REMARK  131  A    between atoms: _306  and  _307
REMARK  132  A    between atoms: _306  and  _309
REMARK  133  A    between atoms: _309  and  _310
REMARK  134  A    between atoms: _313  and  _315
REMARK  135  A    between atoms: _315  and  _316
REMARK  136  A    between atoms: _319  and  _321
REMARK  137  A    between atoms: _321  and  _322
REMARK  138  A    between atoms: _321  and  _324
REMARK  139  A    between atoms: _324  and  _325
REMARK  140  A    between atoms: _325  and  _448
REMARK  141  A    between atoms: _326  and  _328
REMARK  142  A    between atoms: _328  and  _329
REMARK  143  A    between atoms: _328  and  _331
REMARK  144  A    between atoms: _331  and  _332
REMARK  145  A    between atoms: _332  and  _333
REMARK  146  A    between atoms: _338  and  _340
REMARK  147  A    between atoms: _340  and  _341
REMARK  148  A    between atoms: _343  and  _345
REMARK  149  A    between atoms: _345  and  _346
REMARK  150  A    between atoms: _345  and  _348
REMARK  151  A    between atoms: _348  and  _349
REMARK  152  A    between atoms: _352  and  _354
REMARK  153  A    between atoms: _354  and  _355
REMARK  154  A    between atoms: _354  and  _357
REMARK  155  A    between atoms: _357  and  _358
REMARK  156  A    between atoms: _360  and  _362
REMARK  157  A    between atoms: _362  and  _363
REMARK  158  A    between atoms: _365  and  _367
REMARK  159  A    between atoms: _367  and  _368
REMARK  160  A    between atoms: _370  and  _372
REMARK  161  A    between atoms: _372  and  _373
REMARK  162  A    between atoms: _372  and  _375
REMARK  163  A    between atoms: _375  and  _376
REMARK  164  A    between atoms: _381  and  _383
REMARK  165  A    between atoms: _383  and  _384
REMARK  166  A    between atoms: _383  and  _386
REMARK  167  A    between atoms: _386  and  _387
REMARK  168  A    between atoms: _390  and  _392
REMARK  169  A    between atoms: _392  and  _393
REMARK  170  A    between atoms: _392  and  _395
REMARK  171  A    between atoms: _398  and  _400
REMARK  172  A    between atoms: _400  and  _401
REMARK  173  A    between atoms: _400  and  _403
REMARK  174  A    between atoms: _403  and  _404
REMARK  175  A    between atoms: _406  and  _408
REMARK  176  A    between atoms: _408  and  _409
REMARK  177  A    between atoms: _408  and  _411
REMARK  178  A    between atoms: _411  and  _412
REMARK  179  A    between atoms: _422  and  _424
REMARK  180  A    between atoms: _424  and  _425
REMARK  181  A    between atoms: _427  and  _429
REMARK  182  A    between atoms: _429  and  _430
REMARK  183  A    between atoms: _429  and  _432
REMARK  184  A    between atoms: _432  and  _433
REMARK  185  A    between atoms: _433  and  _434
REMARK  186  A    between atoms: _437  and  _439
REMARK  187  A    between atoms: _439  and  _440
REMARK  188  A    between atoms: _442  and  _444
REMARK  189  A    between atoms: _444  and  _445
REMARK  190  A    between atoms: _444  and  _447
REMARK  191  A    between atoms: _447  and  _448
REMARK  192  A    between atoms: _449  and  _451
REMARK  193  A    between atoms: _451  and  _452
REMARK  194  A    between atoms: _455  and  _457
REMARK  195  A    between atoms: _457  and  _458
REMARK  196  A    between atoms: _457  and  _460
REMARK  197  A    between atoms: _460  and  _461
REMARK  198  A    between atoms: _461  and  _462
REMARK  199  A    between atoms: _462  and  _463
REMARK  200  A    between atoms: _472  and  _474
REMARK  201  A    between atoms: _474  and  _475
REMARK  202  A    between atoms: _474  and  _477
REMARK  203  A    between atoms: _477  and  _478
REMARK  204  A    between atoms: _478  and  _479
REMARK  205  A    between atoms: _479  and  _480
REMARK  206  A    between atoms: _480  and  _481
REMARK  207  A    between atoms: _485  and  _487
REMARK  208  A    between atoms: _487  and  _488
REMARK  209  A    between atoms: _487  and  _490
REMARK  210  A    between atoms: _490  and  _491
REMARK  211  A    between atoms: _496  and  _497
REMARK  212  A    between atoms: _499  and  _501
REMARK  213  A    between atoms: _501  and  _502
REMARK  214  A    between atoms: _504  and  _506
REMARK  215  A    between atoms: _506  and  _507
REMARK  216  A    between atoms: _506  and  _509
REMARK  217  A    between atoms: _509  and  _510
REMARK  218  A    between atoms: _513  and  _515
REMARK  219  A    between atoms: _515  and  _516
REMARK  220  A    between atoms: _515  and  _518
REMARK  221  A    between atoms: _518  and  _519
REMARK  222  A    between atoms: _524  and  _525
REMARK  223  A    between atoms: _527  and  _529
REMARK  224  A    between atoms: _529  and  _530
REMARK  225  A    between atoms: _529  and  _532
REMARK  226  A    between atoms: _532  and  _533
REMARK                            x       y       z     vdW  Elec       q    Type
REMARK                         _______ _______ _______ _____ _____    ______ ____
ROOT
ATOM      1  C   GLU A   2      11.069  74.192   5.924  0.00  0.00    +0.241 C 
ATOM      2  N   LYS A   3      10.851  75.480   6.172  0.00  0.00    -0.297 N 
ATOM      3  H   LYS A   3      11.191  75.914   7.054  0.00  0.00    +0.150 HD
ATOM      4  O   GLU A   2      10.758  73.678   4.848  0.00  0.00    -0.273 OA
ENDROOT
BRANCH   2   5
ATOM      5  CA  LYS A   3      10.124  76.275   5.183  0.00  0.00    +0.149 C 
BRANCH   5   6
ATOM      6  C   LYS A   3      11.046  77.126   4.303  0.00  0.00    +0.241 C 
ATOM      7  N   GLY A   4      12.334  77.081   4.630  0.00  0.00    -0.296 N 
ATOM      8  H   GLY A   4      12.650  76.390   5.340  0.00  0.00    +0.150 HD
ATOM      9  O   LYS A   3      10.599  77.779   3.322  0.00  0.00    -0.273 OA
BRANCH   7  10
ATOM     10  CA  GLY A   4      13.317  77.971   4.023  0.00  0.00    +0.163 C 
BRANCH  10  11
ATOM     11  C   GLY A   4      13.955  77.520   2.725  0.00  0.00    +0.229 C 
ATOM     12  O   GLY A   4      13.441  76.654   2.015  0.00  0.00    -0.286 OA
ENDBRANCH  10  11
ENDBRANCH   7  10
ENDBRANCH   5   6
BRANCH   5  13
ATOM     13  CB  LYS A   3       9.035  77.124   5.857  0.00  0.00    +0.029 C 
BRANCH  13  14
ATOM     14  CG  LYS A   3       7.950  76.301   6.519  0.00  0.00    +0.000 C 
BRANCH  14  15
ATOM     15  CD  LYS A   3       7.476  75.174   5.611  0.00  0.00    -0.024 C 
BRANCH  15  16
ATOM     16  CE  LYS A   3       6.222  74.516   6.185  0.00  0.00    -0.086 C 
BRANCH  16  17
ATOM     17  NZ  LYS A   3       5.847  73.272   5.458  0.00  0.00    +0.380 N 
ATOM     18  HZ1 LYS A   3       4.991  72.866   5.887  0.00  0.00    -0.089 HD
ATOM     19  HZ2 LYS A   3       6.627  72.587   5.521  0.00  0.00    -0.089 HD
ATOM     20  HZ3 LYS A   3       5.662  73.498   4.460  0.00  0.00    -0.089 HD
ENDBRANCH  16  17
ENDBRANCH  15  16
ENDBRANCH  14  15
ENDBRANCH  13  14
ENDBRANCH   5  13
ENDBRANCH   2   5
BRANCH   1  21
ATOM     21  CA  GLU A   2      11.706  73.355   7.037  0.00  0.00    +0.149 C 
BRANCH  21  23
ATOM     22  C   HIS A   1      13.684  74.752   7.135  0.00  0.00    +0.239 C 
ATOM     23  N   GLU A   2      12.722  74.097   7.776  0.00  0.00    -0.297 N 
ATOM     24  H   GLU A   2      12.693  74.113   8.815  0.00  0.00    +0.150 HD
ATOM     25  O   HIS A   1      13.719  74.840   5.908  0.00  0.00    -0.274 OA
BRANCH  22  26
ATOM     26  CA  HIS A   1      14.788  75.388   7.973  0.00  0.00    +0.151 C 
BRANCH  26  27
ATOM     27  N   HIS A   1      16.000  75.383   7.144  0.00  0.00    -0.238 NA
ATOM     28  H   HIS A   1      15.893  75.429   6.111  0.00  0.00    +0.142 HD
ENDBRANCH  26  27
BRANCH  26  29
ATOM     29  CB  HIS A   1      14.391  76.824   8.362  0.00  0.00    +0.074 C 
BRANCH  29  30
ATOM     30  CG  HIS A   1      15.398  77.530   9.223  0.00  0.00    +0.082 A 
ATOM     31  CD2 HIS A   1      15.793  77.310  10.500  0.00  0.00    +0.115 A 
ATOM     32  NE2 HIS A   1      16.741  78.258  10.803  0.00  0.00    -0.221 NA
ATOM     33  CE1 HIS A   1      16.923  79.035   9.749  0.00  0.00    +0.199 A 
ATOM     34  ND1 HIS A   1      16.121  78.620   8.784  0.00  0.00    -0.227 NA
ENDBRANCH  29  30
ENDBRANCH  26  29
ENDBRANCH  22  26
ENDBRANCH  21  23
BRANCH  21  35
ATOM     35  CB  GLU A   2      10.628  72.787   7.979  0.00  0.00    +0.041 C 
BRANCH  35  36
ATOM     36  CG  GLU A   2       9.541  72.007   7.252  0.00  0.00    +0.116 C 
BRANCH  36  37
ATOM     37  CD  GLU A   2       8.525  71.346   8.192  0.00  0.00    +0.365 C 
ATOM     38  OE2 GLU A   2       8.912  70.756   9.224  0.00  0.00    -0.246 OA
ATOM     39  OE1 GLU A   2       7.328  71.391   7.866  0.00  0.00    -0.246 OA
ENDBRANCH  36  37
ENDBRANCH  35  36
ENDBRANCH  21  35
ENDBRANCH   1  21
TORSDOF 18
REMARK  Name = ../refined-set-2016/2vwn/2vwn_pocket.pdb
REMARK  226 active torsions:
REMARK  status: ('A' for Active; 'I' for Inactive)
REMARK    1  A    between atoms: _1  and  _5
REMARK    2  A    between atoms: _5  and  _6
REMARK    3  A    between atoms: _5  and  _8
REMARK    4  A    between atoms: _8  and  _9
REMARK    5  A    between atoms: _12  and  _14
REMARK    6  A    between atoms: _14  and  _15
REMARK    7  A    between atoms: _14  and  _17
REMARK    8  A    between atoms: _20  and  _22
REMARK    9  A    between atoms: _22  and  _23
REMARK   10  A    between atoms: _22  and  _25
REMARK   11  A    between atoms: _25  and  _26
REMARK   12  A    between atoms: _31  and  _33
REMARK   13  A    between atoms: _33  and  _34
REMARK   14  A    between atoms: _33  and  _36
REMARK   15  A    between atoms: _36  and  _37
REMARK   16  A    between atoms: _37  and  _38
REMARK   17  A    between atoms: _43  and  _45
REMARK   18  A    between atoms: _45  and  _46
REMARK   19  A    between atoms: _45  and  _48
REMARK   20  A    between atoms: _48  and  _49
REMARK   21  A    between atoms: _52  and  _54
REMARK   22  A    between atoms: _54  and  _55
REMARK   23  A    between atoms: _54  and  _57
REMARK   24  A    between atoms: _57  and  _58
REMARK   25  A    between atoms: _58  and  _59
REMARK   26  A    between atoms: _59  and  _60
REMARK   27  A    between atoms: _60  and  _61
REMARK   28  A    between atoms: _65  and  _67
REMARK   29  A    between atoms: _67  and  _68
REMARK   30  A    between atoms: _67  and  _70
REMARK   31  A    between atoms: _70  and  _71
REMARK   32  A    between atoms: _71  and  _72
REMARK   33  A    between atoms: _75  and  _77
REMARK   34  A    between atoms: _77  and  _78
REMARK   35  A    between atoms: _77  and  _80
REMARK   36  A    between atoms: _80  and  _81
REMARK   37  A    between atoms: _84  and  _86
REMARK   38  A    between atoms: _86  and  _87
REMARK   39  A    between atoms: _86  and  _89
REMARK   40  A    between atoms: _89  and  _90
REMARK   41  A    between atoms: _95  and  _96
REMARK   42  A    between atoms: _98  and  _100
REMARK   43  A    between atoms: _100  and  _101
REMARK   44  A    between atoms: _100  and  _103
REMARK   45  A    between atoms: _103  and  _104
REMARK   46  A    between atoms: _107  and  _109
REMARK   47  A    between atoms: _109  and  _110
REMARK   48  A    between atoms: _109  and  _112
REMARK   49  A    between atoms: _112  and  _113
REMARK   50  A    between atoms: _116  and  _118
REMARK   51  A    between atoms: _118  and  _119
REMARK   52  A    between atoms: _118  and  _121
REMARK   53  A    between atoms: _124  and  _126
REMARK   54  A    between atoms: _126  and  _127
REMARK   55  A    between atoms: _126  and  _129
REMARK   56  A    between atoms: _129  and  _130
REMARK   57  A    between atoms: _130  and  _131
REMARK   58  A    between atoms: _131  and  _132
REMARK   59  A    between atoms: _141  and  _143
REMARK   60  A    between atoms: _143  and  _144
REMARK   61  A    between atoms: _143  and  _146
REMARK   62  A    between atoms: _146  and  _147
REMARK   63  A    between atoms: _152  and  _154
REMARK   64  A    between atoms: _154  and  _155
REMARK   65  A    between atoms: _154  and  _157
REMARK   66  A    between atoms: _157  and  _158
REMARK   67  A    between atoms: _158  and  _159
REMARK   68  A    between atoms: _162  and  _164
REMARK   69  A    between atoms: _164  and  _165
REMARK   70  A    between atoms: _164  and  _167
REMARK   71  A    between atoms: _167  and  _168
REMARK   72  A    between atoms: _168  and  _169
REMARK   73  A    between atoms: _169  and  _170
REMARK   74  A    between atoms: _170  and  _171
REMARK   75  A    between atoms: _175  and  _177
REMARK   76  A    between atoms: _177  and  _178
REMARK   77  A    between atoms: _180  and  _182
REMARK   78  A    between atoms: _182  and  _183
REMARK   79  A    between atoms: _182  and  _185
REMARK   80  A    between atoms: _185  and  _186
REMARK   81  A    between atoms: _186  and  _187
REMARK   82  A    between atoms: _192  and  _194
REMARK   83  A    between atoms: _194  and  _195
REMARK   84  A    between atoms: _194  and  _197
REMARK   85  A    between atoms: _200  and  _202
REMARK   86  A    between atoms: _202  and  _203
REMARK   87  A    between atoms: _202  and  _205
REMARK   88  A    between atoms: _205  and  _206
REMARK   89  A    between atoms: _208  and  _210
REMARK   90  A    between atoms: _210  and  _211
REMARK   91  A    between atoms: _210  and  _213
REMARK   92  A    between atoms: _213  and  _214
REMARK   93  A    between atoms: _216  and  _218
REMARK   94  A    between atoms: _218  and  _219
REMARK   95  A    between atoms: _218  and  _221
REMARK   96  A    between atoms: _221  and  _222
REMARK   97  A    between atoms: _228  and  _230
REMARK   98  A    between atoms: _230  and  _231
REMARK   99  A    between atoms: _230  and  _233
REMARK  100  A    between atoms: _233  and  _234
REMARK  101  A    between atoms: _237  and  _239
REMARK  102  A    between atoms: _239  and  _240
REMARK  103  A    between atoms: _239  and  _242
REMARK  104  A    between atoms: _242  and  _243
REMARK  105  A    between atoms: _246  and  _248
REMARK  106  A    between atoms: _248  and  _249
REMARK  107  A    between atoms: _248  and  _251
REMARK  108  A    between atoms: _251  and  _252
REMARK  109  A    between atoms: _255  and  _257
REMARK  110  A    between atoms: _257  and  _258
REMARK  111  A    between atoms: _257  and  _260
REMARK  112  A    between atoms: _260  and  _261
REMARK  113  A    between atoms: _261  and  _262
REMARK  114  A    between atoms: _264  and  _266
REMARK  115  A    between atoms: _266  and  _267
REMARK  116  A    between atoms: _266  and  _269
REMARK  117  A    between atoms: _269  and  _270
REMARK  118  A    between atoms: _276  and  _278
REMARK  119  A    between atoms: _278  and  _279
REMARK  120  A    between atoms: _278  and  _281
REMARK  121  A    between atoms: _283  and  _285
REMARK  122  A    between atoms: _285  and  _286
REMARK  123  A    between atoms: _289  and  _291
REMARK  124  A    between atoms: _291  and  _292
REMARK  125  A    between atoms: _294  and  _296
REMARK  126  A    between atoms: _296  and  _297
REMARK  127  A    between atoms: _296  and  _299
REMARK  128  A    between atoms: _299  and  _300
REMARK  129  A    between atoms: _300  and  _301
REMARK  130  A    between atoms: _304  and  _306
REMARK  131  A    between atoms: _306  and  _307
REMARK  132  A    between atoms: _306  and  _309
REMARK  133  A    between atoms: _309  and  _310
REMARK  134  A    between atoms: _313  and  _315
REMARK  135  A    between atoms: _315  and  _316
REMARK  136  A    between atoms: _319  and  _321
REMARK  137  A    between atoms: _321  and  _322
REMARK  138  A    between atoms: _321  and  _324
REMARK  139  A    between atoms: _324  and  _325
REMARK  140  A    between atoms: _325  and  _448
REMARK  141  A    between atoms: _326  and  _328
REMARK  142  A    between atoms: _328  and  _329
REMARK  143  A    between atoms: _328  and  _331
REMARK  144  A    between atoms: _331  and  _332
REMARK  145  A    between atoms: _332  and  _333
REMARK  146  A    between atoms: _338  and  _340
REMARK  147  A    between atoms: _340  and  _341
REMARK  148  A    between atoms: _343  and  _345
REMARK  149  A    between atoms: _345  and  _346
REMARK  150  A    between atoms: _345  and  _348
REMARK  151  A    between atoms: _348  and  _349
REMARK  152  A    between atoms: _352  and  _354
REMARK  153  A    between atoms: _354  and  _355
REMARK  154  A    between atoms: _354  and  _357
REMARK  155  A    between atoms: _357  and  _358
REMARK  156  A    between atoms: _360  and  _362
REMARK  157  A    between atoms: _362  and  _363
REMARK  158  A    between atoms: _365  and  _367
REMARK  159  A    between atoms: _367  and  _368
REMARK  160  A    between atoms: _370  and  _372
REMARK  161  A    between atoms: _372  and  _373
REMARK  162  A    between atoms: _372  and  _375
REMARK  163  A    between atoms: _375  and  _376
REMARK  164  A    between atoms: _381  and  _383
REMARK  165  A    between atoms: _383  and  _384
REMARK  166  A    between atoms: _383  and  _386
REMARK  167  A    between atoms: _386  and  _387
REMARK  168  A    between atoms: _390  and  _392
REMARK  169  A    between atoms: _392  and  _393
REMARK  170  A    between atoms: _392  and  _395
REMARK  171  A    between atoms: _398  and  _400
REMARK  172  A    between atoms: _400  and  _401
REMARK  173  A    between atoms: _400  and  _403
REMARK  174  A    between atoms: _403  and  _404
REMARK  175  A    between atoms: _406  and  _408
REMARK  176  A    between atoms: _408  and  _409
REMARK  177  A    between atoms: _408  and  _411
REMARK  178  A    between atoms: _411  and  _412
REMARK  179  A    between atoms: _422  and  _424
REMARK  180  A    between atoms: _424  and  _425
REMARK  181  A    between atoms: _427  and  _429
REMARK  182  A    between atoms: _429  and  _430
REMARK  183  A    between atoms: _429  and  _432
REMARK  184  A    between atoms: _432  and  _433
REMARK  185  A    between atoms: _433  and  _434
REMARK  186  A    between atoms: _437  and  _439
REMARK  187  A    between atoms: _439  and  _440
REMARK  188  A    between atoms: _442  and  _444
REMARK  189  A    between atoms: _444  and  _445
REMARK  190  A    between atoms: _444  and  _447
REMARK  191  A    between atoms: _447  and  _448
REMARK  192  A    between atoms: _449  and  _451
REMARK  193  A    between atoms: _451  and  _452
REMARK  194  A    between atoms: _455  and  _457
REMARK  195  A    between atoms: _457  and  _458
REMARK  196  A    between atoms: _457  and  _460
REMARK  197  A    between atoms: _460  and  _461
REMARK  198  A    between atoms: _461  and  _462
REMARK  199  A    between atoms: _462  and  _463
REMARK  200  A    between atoms: _472  and  _474
REMARK  201  A    between atoms: _474  and  _475
REMARK  202  A    between atoms: _474  and  _477
REMARK  203  A    between atoms: _477  and  _478
REMARK  204  A    between atoms: _478  and  _479
REMARK  205  A    between atoms: _479  and  _480
REMARK  206  A    between atoms: _480  and  _481
REMARK  207  A    between atoms: _485  and  _487
REMARK  208  A    between atoms: _487  and  _488
REMARK  209  A    between atoms: _487  and  _490
REMARK  210  A    between atoms: _490  and  _491
REMARK  211  A    between atoms: _496  and  _497
REMARK  212  A    between atoms: _499  and  _501
REMARK  213  A    between atoms: _501  and  _502
REMARK  214  A    between atoms: _504  and  _506
REMARK  215  A    between atoms: _506  and  _507
REMARK  216  A    between atoms: _506  and  _509
REMARK  217  A    between atoms: _509  and  _510
REMARK  218  A    between atoms: _513  and  _515
REMARK  219  A    between atoms: _515  and  _516
REMARK  220  A    between atoms: _515  and  _518
REMARK  221  A    between atoms: _518  and  _519
REMARK  222  A    between atoms: _524  and  _525
REMARK  223  A    between atoms: _527  and  _529
REMARK  224  A    between atoms: _529  and  _530
REMARK  225  A    between atoms: _529  and  _532
REMARK  226  A    between atoms: _532  and  _533
REMARK                            x       y       z     vdW  Elec       q    Type
REMARK                         _______ _______ _______ _____ _____    ______ ____
ROOT
ATOM      1  CB  GLN A   1      18.572  74.463  -0.877  0.00  0.00    +0.035 C 
ENDROOT
BRANCH   1   2
ATOM      2  CA  GLN A   1      18.442  75.335   0.377  0.00  0.00    +0.134 C 
BRANCH   2   3
ATOM      3  N   GLN A   1      17.328  76.265   0.264  0.00  0.00    -0.239 NA
ATOM      4  H   GLN A   1      16.884  76.440  -0.660  0.00  0.00    +0.142 HD
ENDBRANCH   2   3
BRANCH   2   5
ATOM      5  C   GLN A   1      19.701  76.116   0.687  0.00  0.00    +0.224 C 
ATOM      6  O   GLN A   1      19.823  77.289   0.324  0.00  0.00    -0.287 OA
ENDBRANCH   2   5
ENDBRANCH   1   2
BRANCH   1   7
ATOM      7  CG  GLN A   1      17.218  73.795  -1.226  0.00  0.00    +0.087 C 
BRANCH   7   8
ATOM      8  CD  GLN A   1      17.321  72.389  -1.789  0.00  0.00    +0.219 C 
ATOM      9  NE2 GLN A   1      18.533  71.920  -2.004  0.00  0.00    -0.329 N 
ATOM     10 HE21 GLN A   1      19.364  72.510  -1.796  0.00  0.00    +0.145 HD
ATOM     11 HE22 GLN A   1      18.659  70.959  -2.382  0.00  0.00    +0.145 HD
ATOM     12  OE1 GLN A   1      16.302  71.727  -2.020  0.00  0.00    -0.275 OA
ENDBRANCH   7   8
ENDBRANCH   1   7
TORSDOF 5
REMARK  Name = ../refined-set-2016/2vwn/2vwn_pocket.pdb
REMARK  226 active torsions:
REMARK  status: ('A' for Active; 'I' for Inactive)
REMARK    1  A    between atoms: _1  and  _5
REMARK    2  A    between atoms: _5  and  _6
REMARK    3  A    between atoms: _5  and  _8
REMARK    4  A    between atoms: _8  and  _9
REMARK    5  A    between atoms: _12  and  _14
REMARK    6  A    between atoms: _14  and  _15
REMARK    7  A    between atoms: _14  and  _17
REMARK    8  A    between atoms: _20  and  _22
REMARK    9  A    between atoms: _22  and  _23
REMARK   10  A    between atoms: _22  and  _25
REMARK   11  A    between atoms: _25  and  _26
REMARK   12  A    between atoms: _31  and  _33
REMARK   13  A    between atoms: _33  and  _34
REMARK   14  A    between atoms: _33  and  _36
REMARK   15  A    between atoms: _36  and  _37
REMARK   16  A    between atoms: _37  and  _38
REMARK   17  A    between atoms: _43  and  _45
REMARK   18  A    between atoms: _45  and  _46
REMARK   19  A    between atoms: _45  and  _48
REMARK   20  A    between atoms: _48  and  _49
REMARK   21  A    between atoms: _52  and  _54
REMARK   22  A    between atoms: _54  and  _55
REMARK   23  A    between atoms: _54  and  _57
REMARK   24  A    between atoms: _57  and  _58
REMARK   25  A    between atoms: _58  and  _59
REMARK   26  A    between atoms: _59  and  _60
REMARK   27  A    between atoms: _60  and  _61
REMARK   28  A    between atoms: _65  and  _67
REMARK   29  A    between atoms: _67  and  _68
REMARK   30  A    between atoms: _67  and  _70
REMARK   31  A    between atoms: _70  and  _71
REMARK   32  A    between atoms: _71  and  _72
REMARK   33  A    between atoms: _75  and  _77
REMARK   34  A    between atoms: _77  and  _78
REMARK   35  A    between atoms: _77  and  _80
REMARK   36  A    between atoms: _80  and  _81
REMARK   37  A    between atoms: _84  and  _86
REMARK   38  A    between atoms: _86  and  _87
REMARK   39  A    between atoms: _86  and  _89
REMARK   40  A    between atoms: _89  and  _90
REMARK   41  A    between atoms: _95  and  _96
REMARK   42  A    between atoms: _98  and  _100
REMARK   43  A    between atoms: _100  and  _101
REMARK   44  A    between atoms: _100  and  _103
REMARK   45  A    between atoms: _103  and  _104
REMARK   46  A    between atoms: _107  and  _109
REMARK   47  A    between atoms: _109  and  _110
REMARK   48  A    between atoms: _109  and  _112
REMARK   49  A    between atoms: _112  and  _113
REMARK   50  A    between atoms: _116  and  _118
REMARK   51  A    between atoms: _118  and  _119
REMARK   52  A    between atoms: _118  and  _121
REMARK   53  A    between atoms: _124  and  _126
REMARK   54  A    between atoms: _126  and  _127
REMARK   55  A    between atoms: _126  and  _129
REMARK   56  A    between atoms: _129  and  _130
REMARK   57  A    between atoms: _130  and  _131
REMARK   58  A    between atoms: _131  and  _132
REMARK   59  A    between atoms: _141  and  _143
REMARK   60  A    between atoms: _143  and  _144
REMARK   61  A    between atoms: _143  and  _146
REMARK   62  A    between atoms: _146  and  _147
REMARK   63  A    between atoms: _152  and  _154
REMARK   64  A    between atoms: _154  and  _155
REMARK   65  A    between atoms: _154  and  _157
REMARK   66  A    between atoms: _157  and  _158
REMARK   67  A    between atoms: _158  and  _159
REMARK   68  A    between atoms: _162  and  _164
REMARK   69  A    between atoms: _164  and  _165
REMARK   70  A    between atoms: _164  and  _167
REMARK   71  A    between atoms: _167  and  _168
REMARK   72  A    between atoms: _168  and  _169
REMARK   73  A    between atoms: _169  and  _170
REMARK   74  A    between atoms: _170  and  _171
REMARK   75  A    between atoms: _175  and  _177
REMARK   76  A    between atoms: _177  and  _178
REMARK   77  A    between atoms: _180  and  _182
REMARK   78  A    between atoms: _182  and  _183
REMARK   79  A    between atoms: _182  and  _185
REMARK   80  A    between atoms: _185  and  _186
REMARK   81  A    between atoms: _186  and  _187
REMARK   82  A    between atoms: _192  and  _194
REMARK   83  A    between atoms: _194  and  _195
REMARK   84  A    between atoms: _194  and  _197
REMARK   85  A    between atoms: _200  and  _202
REMARK   86  A    between atoms: _202  and  _203
REMARK   87  A    between atoms: _202  and  _205
REMARK   88  A    between atoms: _205  and  _206
REMARK   89  A    between atoms: _208  and  _210
REMARK   90  A    between atoms: _210  and  _211
REMARK   91  A    between atoms: _210  and  _213
REMARK   92  A    between atoms: _213  and  _214
REMARK   93  A    between atoms: _216  and  _218
REMARK   94  A    between atoms: _218  and  _219
REMARK   95  A    between atoms: _218  and  _221
REMARK   96  A    between atoms: _221  and  _222
REMARK   97  A    between atoms: _228  and  _230
REMARK   98  A    between atoms: _230  and  _231
REMARK   99  A    between atoms: _230  and  _233
REMARK  100  A    between atoms: _233  and  _234
REMARK  101  A    between atoms: _237  and  _239
REMARK  102  A    between atoms: _239  and  _240
REMARK  103  A    between atoms: _239  and  _242
REMARK  104  A    between atoms: _242  and  _243
REMARK  105  A    between atoms: _246  and  _248
REMARK  106  A    between atoms: _248  and  _249
REMARK  107  A    between atoms: _248  and  _251
REMARK  108  A    between atoms: _251  and  _252
REMARK  109  A    between atoms: _255  and  _257
REMARK  110  A    between atoms: _257  and  _258
REMARK  111  A    between atoms: _257  and  _260
REMARK  112  A    between atoms: _260  and  _261
REMARK  113  A    between atoms: _261  and  _262
REMARK  114  A    between atoms: _264  and  _266
REMARK  115  A    between atoms: _266  and  _267
REMARK  116  A    between atoms: _266  and  _269
REMARK  117  A    between atoms: _269  and  _270
REMARK  118  A    between atoms: _276  and  _278
REMARK  119  A    between atoms: _278  and  _279
REMARK  120  A    between atoms: _278  and  _281
REMARK  121  A    between atoms: _283  and  _285
REMARK  122  A    between atoms: _285  and  _286
REMARK  123  A    between atoms: _289  and  _291
REMARK  124  A    between atoms: _291  and  _292
REMARK  125  A    between atoms: _294  and  _296
REMARK  126  A    between atoms: _296  and  _297
REMARK  127  A    between atoms: _296  and  _299
REMARK  128  A    between atoms: _299  and  _300
REMARK  129  A    between atoms: _300  and  _301
REMARK  130  A    between atoms: _304  and  _306
REMARK  131  A    between atoms: _306  and  _307
REMARK  132  A    between atoms: _306  and  _309
REMARK  133  A    between atoms: _309  and  _310
REMARK  134  A    between atoms: _313  and  _315
REMARK  135  A    between atoms: _315  and  _316
REMARK  136  A    between atoms: _319  and  _321
REMARK  137  A    between atoms: _321  and  _322
REMARK  138  A    between atoms: _321  and  _324
REMARK  139  A    between atoms: _324  and  _325
REMARK  140  A    between atoms: _325  and  _448
REMARK  141  A    between atoms: _326  and  _328
REMARK  142  A    between atoms: _328  and  _329
REMARK  143  A    between atoms: _328  and  _331
REMARK  144  A    between atoms: _331  and  _332
REMARK  145  A    between atoms: _332  and  _333
REMARK  146  A    between atoms: _338  and  _340
REMARK  147  A    between atoms: _340  and  _341
REMARK  148  A    between atoms: _343  and  _345
REMARK  149  A    between atoms: _345  and  _346
REMARK  150  A    between atoms: _345  and  _348
REMARK  151  A    between atoms: _348  and  _349
REMARK  152  A    between atoms: _352  and  _354
REMARK  153  A    between atoms: _354  and  _355
REMARK  154  A    between atoms: _354  and  _357
REMARK  155  A    between atoms: _357  and  _358
REMARK  156  A    between atoms: _360  and  _362
REMARK  157  A    between atoms: _362  and  _363
REMARK  158  A    between atoms: _365  and  _367
REMARK  159  A    between atoms: _367  and  _368
REMARK  160  A    between atoms: _370  and  _372
REMARK  161  A    between atoms: _372  and  _373
REMARK  162  A    between atoms: _372  and  _375
REMARK  163  A    between atoms: _375  and  _376
REMARK  164  A    between atoms: _381  and  _383
REMARK  165  A    between atoms: _383  and  _384
REMARK  166  A    between atoms: _383  and  _386
REMARK  167  A    between atoms: _386  and  _387
REMARK  168  A    between atoms: _390  and  _392
REMARK  169  A    between atoms: _392  and  _393
REMARK  170  A    between atoms: _392  and  _395
REMARK  171  A    between atoms: _398  and  _400
REMARK  172  A    between atoms: _400  and  _401
REMARK  173  A    between atoms: _400  and  _403
REMARK  174  A    between atoms: _403  and  _404
REMARK  175  A    between atoms: _406  and  _408
REMARK  176  A    between atoms: _408  and  _409
REMARK  177  A    between atoms: _408  and  _411
REMARK  178  A    between atoms: _411  and  _412
REMARK  179  A    between atoms: _422  and  _424
REMARK  180  A    between atoms: _424  and  _425
REMARK  181  A    between atoms: _427  and  _429
REMARK  182  A    between atoms: _429  and  _430
REMARK  183  A    between atoms: _429  and  _432
REMARK  184  A    between atoms: _432  and  _433
REMARK  185  A    between atoms: _433  and  _434
REMARK  186  A    between atoms: _437  and  _439
REMARK  187  A    between atoms: _439  and  _440
REMARK  188  A    between atoms: _442  and  _444
REMARK  189  A    between atoms: _444  and  _445
REMARK  190  A    between atoms: _444  and  _447
REMARK  191  A    between atoms: _447  and  _448
REMARK  192  A    between atoms: _449  and  _451
REMARK  193  A    between atoms: _451  and  _452
REMARK  194  A    between atoms: _455  and  _457
REMARK  195  A    between atoms: _457  and  _458
REMARK  196  A    between atoms: _457  and  _460
REMARK  197  A    between atoms: _460  and  _461
REMARK  198  A    between atoms: _461  and  _462
REMARK  199  A    between atoms: _462  and  _463
REMARK  200  A    between atoms: _472  and  _474
REMARK  201  A    between atoms: _474  and  _475
REMARK  202  A    between atoms: _474  and  _477
REMARK  203  A    between atoms: _477  and  _478
REMARK  204  A    between atoms: _478  and  _479
REMARK  205  A    between atoms: _479  and  _480
REMARK  206  A    between atoms: _480  and  _481
REMARK  207  A    between atoms: _485  and  _487
REMARK  208  A    between atoms: _487  and  _488
REMARK  209  A    between atoms: _487  and  _490
REMARK  210  A    between atoms: _490  and  _491
REMARK  211  A    between atoms: _496  and  _497
REMARK  212  A    between atoms: _499  and  _501
REMARK  213  A    between atoms: _501  and  _502
REMARK  214  A    between atoms: _504  and  _506
REMARK  215  A    between atoms: _506  and  _507
REMARK  216  A    between atoms: _506  and  _509
REMARK  217  A    between atoms: _509  and  _510
REMARK  218  A    between atoms: _513  and  _515
REMARK  219  A    between atoms: _515  and  _516
REMARK  220  A    between atoms: _515  and  _518
REMARK  221  A    between atoms: _518  and  _519
REMARK  222  A    between atoms: _524  and  _525
REMARK  223  A    between atoms: _527  and  _529
REMARK  224  A    between atoms: _529  and  _530
REMARK  225  A    between atoms: _529  and  _532
REMARK  226  A    between atoms: _532  and  _533
REMARK                            x       y       z     vdW  Elec       q    Type
REMARK                         _______ _______ _______ _____ _____    ______ ____
ROOT
ATOM      1  CA  VAL A   1      22.991  62.641  14.584  0.00  0.00    +0.133 C 
ENDROOT
BRANCH   1   2
ATOM      2  CB  VAL A   1      22.037  62.430  13.375  0.00  0.00    +0.023 C 
ATOM      3  CG2 VAL A   1      21.579  63.793  12.859  0.00  0.00    +0.002 C 
ATOM      4  CG1 VAL A   1      22.745  61.621  12.282  0.00  0.00    +0.002 C 
ENDBRANCH   1   2
BRANCH   1   5
ATOM      5  N   VAL A   1      24.289  63.139  14.137  0.00  0.00    -0.239 NA
ATOM      6  H   VAL A   1      24.876  62.540  13.522  0.00  0.00    +0.142 HD
ENDBRANCH   1   5
BRANCH   1   7
ATOM      7  C   VAL A   1      23.110  61.332  15.356  0.00  0.00    +0.224 C 
ATOM      8  O   VAL A   1      23.709  60.357  14.906  0.00  0.00    -0.287 OA
ENDBRANCH   1   7
TORSDOF 3
REMARK  Name = ../refined-set-2016/2vwn/2vwn_pocket.pdb
REMARK  226 active torsions:
REMARK  status: ('A' for Active; 'I' for Inactive)
REMARK    1  A    between atoms: _1  and  _5
REMARK    2  A    between atoms: _5  and  _6
REMARK    3  A    between atoms: _5  and  _8
REMARK    4  A    between atoms: _8  and  _9
REMARK    5  A    between atoms: _12  and  _14
REMARK    6  A    between atoms: _14  and  _15
REMARK    7  A    between atoms: _14  and  _17
REMARK    8  A    between atoms: _20  and  _22
REMARK    9  A    between atoms: _22  and  _23
REMARK   10  A    between atoms: _22  and  _25
REMARK   11  A    between atoms: _25  and  _26
REMARK   12  A    between atoms: _31  and  _33
REMARK   13  A    between atoms: _33  and  _34
REMARK   14  A    between atoms: _33  and  _36
REMARK   15  A    between atoms: _36  and  _37
REMARK   16  A    between atoms: _37  and  _38
REMARK   17  A    between atoms: _43  and  _45
REMARK   18  A    between atoms: _45  and  _46
REMARK   19  A    between atoms: _45  and  _48
REMARK   20  A    between atoms: _48  and  _49
REMARK   21  A    between atoms: _52  and  _54
REMARK   22  A    between atoms: _54  and  _55
REMARK   23  A    between atoms: _54  and  _57
REMARK   24  A    between atoms: _57  and  _58
REMARK   25  A    between atoms: _58  and  _59
REMARK   26  A    between atoms: _59  and  _60
REMARK   27  A    between atoms: _60  and  _61
REMARK   28  A    between atoms: _65  and  _67
REMARK   29  A    between atoms: _67  and  _68
REMARK   30  A    between atoms: _67  and  _70
REMARK   31  A    between atoms: _70  and  _71
REMARK   32  A    between atoms: _71  and  _72
REMARK   33  A    between atoms: _75  and  _77
REMARK   34  A    between atoms: _77  and  _78
REMARK   35  A    between atoms: _77  and  _80
REMARK   36  A    between atoms: _80  and  _81
REMARK   37  A    between atoms: _84  and  _86
REMARK   38  A    between atoms: _86  and  _87
REMARK   39  A    between atoms: _86  and  _89
REMARK   40  A    between atoms: _89  and  _90
REMARK   41  A    between atoms: _95  and  _96
REMARK   42  A    between atoms: _98  and  _100
REMARK   43  A    between atoms: _100  and  _101
REMARK   44  A    between atoms: _100  and  _103
REMARK   45  A    between atoms: _103  and  _104
REMARK   46  A    between atoms: _107  and  _109
REMARK   47  A    between atoms: _109  and  _110
REMARK   48  A    between atoms: _109  and  _112
REMARK   49  A    between atoms: _112  and  _113
REMARK   50  A    between atoms: _116  and  _118
REMARK   51  A    between atoms: _118  and  _119
REMARK   52  A    between atoms: _118  and  _121
REMARK   53  A    between atoms: _124  and  _126
REMARK   54  A    between atoms: _126  and  _127
REMARK   55  A    between atoms: _126  and  _129
REMARK   56  A    between atoms: _129  and  _130
REMARK   57  A    between atoms: _130  and  _131
REMARK   58  A    between atoms: _131  and  _132
REMARK   59  A    between atoms: _141  and  _143
REMARK   60  A    between atoms: _143  and  _144
REMARK   61  A    between atoms: _143  and  _146
REMARK   62  A    between atoms: _146  and  _147
REMARK   63  A    between atoms: _152  and  _154
REMARK   64  A    between atoms: _154  and  _155
REMARK   65  A    between atoms: _154  and  _157
REMARK   66  A    between atoms: _157  and  _158
REMARK   67  A    between atoms: _158  and  _159
REMARK   68  A    between atoms: _162  and  _164
REMARK   69  A    between atoms: _164  and  _165
REMARK   70  A    between atoms: _164  and  _167
REMARK   71  A    between atoms: _167  and  _168
REMARK   72  A    between atoms: _168  and  _169
REMARK   73  A    between atoms: _169  and  _170
REMARK   74  A    between atoms: _170  and  _171
REMARK   75  A    between atoms: _175  and  _177
REMARK   76  A    between atoms: _177  and  _178
REMARK   77  A    between atoms: _180  and  _182
REMARK   78  A    between atoms: _182  and  _183
REMARK   79  A    between atoms: _182  and  _185
REMARK   80  A    between atoms: _185  and  _186
REMARK   81  A    between atoms: _186  and  _187
REMARK   82  A    between atoms: _192  and  _194
REMARK   83  A    between atoms: _194  and  _195
REMARK   84  A    between atoms: _194  and  _197
REMARK   85  A    between atoms: _200  and  _202
REMARK   86  A    between atoms: _202  and  _203
REMARK   87  A    between atoms: _202  and  _205
REMARK   88  A    between atoms: _205  and  _206
REMARK   89  A    between atoms: _208  and  _210
REMARK   90  A    between atoms: _210  and  _211
REMARK   91  A    between atoms: _210  and  _213
REMARK   92  A    between atoms: _213  and  _214
REMARK   93  A    between atoms: _216  and  _218
REMARK   94  A    between atoms: _218  and  _219
REMARK   95  A    between atoms: _218  and  _221
REMARK   96  A    between atoms: _221  and  _222
REMARK   97  A    between atoms: _228  and  _230
REMARK   98  A    between atoms: _230  and  _231
REMARK   99  A    between atoms: _230  and  _233
REMARK  100  A    between atoms: _233  and  _234
REMARK  101  A    between atoms: _237  and  _239
REMARK  102  A    between atoms: _239  and  _240
REMARK  103  A    between atoms: _239  and  _242
REMARK  104  A    between atoms: _242  and  _243
REMARK  105  A    between atoms: _246  and  _248
REMARK  106  A    between atoms: _248  and  _249
REMARK  107  A    between atoms: _248  and  _251
REMARK  108  A    between atoms: _251  and  _252
REMARK  109  A    between atoms: _255  and  _257
REMARK  110  A    between atoms: _257  and  _258
REMARK  111  A    between atoms: _257  and  _260
REMARK  112  A    between atoms: _260  and  _261
REMARK  113  A    between atoms: _261  and  _262
REMARK  114  A    between atoms: _264  and  _266
REMARK  115  A    between atoms: _266  and  _267
REMARK  116  A    between atoms: _266  and  _269
REMARK  117  A    between atoms: _269  and  _270
REMARK  118  A    between atoms: _276  and  _278
REMARK  119  A    between atoms: _278  and  _279
REMARK  120  A    between atoms: _278  and  _281
REMARK  121  A    between atoms: _283  and  _285
REMARK  122  A    between atoms: _285  and  _286
REMARK  123  A    between atoms: _289  and  _291
REMARK  124  A    between atoms: _291  and  _292
REMARK  125  A    between atoms: _294  and  _296
REMARK  126  A    between atoms: _296  and  _297
REMARK  127  A    between atoms: _296  and  _299
REMARK  128  A    between atoms: _299  and  _300
REMARK  129  A    between atoms: _300  and  _301
REMARK  130  A    between atoms: _304  and  _306
REMARK  131  A    between atoms: _306  and  _307
REMARK  132  A    between atoms: _306  and  _309
REMARK  133  A    between atoms: _309  and  _310
REMARK  134  A    between atoms: _313  and  _315
REMARK  135  A    between atoms: _315  and  _316
REMARK  136  A    between atoms: _319  and  _321
REMARK  137  A    between atoms: _321  and  _322
REMARK  138  A    between atoms: _321  and  _324
REMARK  139  A    between atoms: _324  and  _325
REMARK  140  A    between atoms: _325  and  _448
REMARK  141  A    between atoms: _326  and  _328
REMARK  142  A    between atoms: _328  and  _329
REMARK  143  A    between atoms: _328  and  _331
REMARK  144  A    between atoms: _331  and  _332
REMARK  145  A    between atoms: _332  and  _333
REMARK  146  A    between atoms: _338  and  _340
REMARK  147  A    between atoms: _340  and  _341
REMARK  148  A    between atoms: _343  and  _345
REMARK  149  A    between atoms: _345  and  _346
REMARK  150  A    between atoms: _345  and  _348
REMARK  151  A    between atoms: _348  and  _349
REMARK  152  A    between atoms: _352  and  _354
REMARK  153  A    between atoms: _354  and  _355
REMARK  154  A    between atoms: _354  and  _357
REMARK  155  A    between atoms: _357  and  _358
REMARK  156  A    between atoms: _360  and  _362
REMARK  157  A    between atoms: _362  and  _363
REMARK  158  A    between atoms: _365  and  _367
REMARK  159  A    between atoms: _367  and  _368
REMARK  160  A    between atoms: _370  and  _372
REMARK  161  A    between atoms: _372  and  _373
REMARK  162  A    between atoms: _372  and  _375
REMARK  163  A    between atoms: _375  and  _376
REMARK  164  A    between atoms: _381  and  _383
REMARK  165  A    between atoms: _383  and  _384
REMARK  166  A    between atoms: _383  and  _386
REMARK  167  A    between atoms: _386  and  _387
REMARK  168  A    between atoms: _390  and  _392
REMARK  169  A    between atoms: _392  and  _393
REMARK  170  A    between atoms: _392  and  _395
REMARK  171  A    between atoms: _398  and  _400
REMARK  172  A    between atoms: _400  and  _401
REMARK  173  A    between atoms: _400  and  _403
REMARK  174  A    between atoms: _403  and  _404
REMARK  175  A    between atoms: _406  and  _408
REMARK  176  A    between atoms: _408  and  _409
REMARK  177  A    between atoms: _408  and  _411
REMARK  178  A    between atoms: _411  and  _412
REMARK  179  A    between atoms: _422  and  _424
REMARK  180  A    between atoms: _424  and  _425
REMARK  181  A    between atoms: _427  and  _429
REMARK  182  A    between atoms: _429  and  _430
REMARK  183  A    between atoms: _429  and  _432
REMARK  184  A    between atoms: _432  and  _433
REMARK  185  A    between atoms: _433  and  _434
REMARK  186  A    between atoms: _437  and  _439
REMARK  187  A    between atoms: _439  and  _440
REMARK  188  A    between atoms: _442  and  _444
REMARK  189  A    between atoms: _444  and  _445
REMARK  190  A    between atoms: _444  and  _447
REMARK  191  A    between atoms: _447  and  _448
REMARK  192  A    between atoms: _449  and  _451
REMARK  193  A    between atoms: _451  and  _452
REMARK  194  A    between atoms: _455  and  _457
REMARK  195  A    between atoms: _457  and  _458
REMARK  196  A    between atoms: _457  and  _460
REMARK  197  A    between atoms: _460  and  _461
REMARK  198  A    between atoms: _461  and  _462
REMARK  199  A    between atoms: _462  and  _463
REMARK  200  A    between atoms: _472  and  _474
REMARK  201  A    between atoms: _474  and  _475
REMARK  202  A    between atoms: _474  and  _477
REMARK  203  A    between atoms: _477  and  _478
REMARK  204  A    between atoms: _478  and  _479
REMARK  205  A    between atoms: _479  and  _480
REMARK  206  A    between atoms: _480  and  _481
REMARK  207  A    between atoms: _485  and  _487
REMARK  208  A    between atoms: _487  and  _488
REMARK  209  A    between atoms: _487  and  _490
REMARK  210  A    between atoms: _490  and  _491
REMARK  211  A    between atoms: _496  and  _497
REMARK  212  A    between atoms: _499  and  _501
REMARK  213  A    between atoms: _501  and  _502
REMARK  214  A    between atoms: _504  and  _506
REMARK  215  A    between atoms: _506  and  _507
REMARK  216  A    between atoms: _506  and  _509
REMARK  217  A    between atoms: _509  and  _510
REMARK  218  A    between atoms: _513  and  _515
REMARK  219  A    between atoms: _515  and  _516
REMARK  220  A    between atoms: _515  and  _518
REMARK  221  A    between atoms: _518  and  _519
REMARK  222  A    between atoms: _524  and  _525
REMARK  223  A    between atoms: _527  and  _529
REMARK  224  A    between atoms: _529  and  _530
REMARK  225  A    between atoms: _529  and  _532
REMARK  226  A    between atoms: _532  and  _533
REMARK                            x       y       z     vdW  Elec       q    Type
REMARK                         _______ _______ _______ _____ _____    ______ ____
ROOT
ATOM      1  C   PHE A   3       5.364  54.423   8.830  0.00  0.00    +0.241 C 
ATOM      2  O   PHE A   3       6.125  54.537   9.790  0.00  0.00    -0.273 OA
ATOM      3  N   ILE A   4       5.220  53.300   8.137  0.00  0.00    -0.297 N 
ATOM      4  H   ILE A   4       4.584  53.292   7.314  0.00  0.00    +0.150 HD
ENDROOT
BRANCH   3   5
ATOM      5  CA  ILE A   4       5.921  52.091   8.494  0.00  0.00    +0.149 C 
BRANCH   5   6
ATOM      6  C   ILE A   4       7.430  52.266   8.338  0.00  0.00    +0.241 C 
ATOM      7  N   ILE A   5       8.158  51.910   9.393  0.00  0.00    -0.297 N 
ATOM      8  H   ILE A   5       7.665  51.670  10.277  0.00  0.00    +0.150 HD
ATOM      9  O   ILE A   4       7.920  52.684   7.274  0.00  0.00    -0.273 OA
BRANCH   7  10
ATOM     10  CA  ILE A   5       9.614  51.840   9.370  0.00  0.00    +0.149 C 
BRANCH  10  11
ATOM     11  C   ILE A   5      10.013  50.394   9.106  0.00  0.00    +0.241 C 
ATOM     12  O   ILE A   5       9.660  49.482   9.881  0.00  0.00    -0.273 OA
ATOM     13  N   THR A   6      10.714  50.156   8.004  0.00  0.00    -0.296 N 
ATOM     14  H   THR A   6      11.015  50.955   7.410  0.00  0.00    +0.150 HD
BRANCH  13  15
ATOM     15  CA  THR A   6      11.072  48.795   7.608  0.00  0.00    +0.164 C 
BRANCH  15  16
ATOM     16  CB  THR A   6      10.984  48.566   6.080  0.00  0.00    +0.136 C 
ATOM     17  CG2 THR A   6       9.629  49.053   5.517  0.00  0.00    +0.034 C 
BRANCH  16  18
ATOM     18  OG1 THR A   6      12.097  49.216   5.425  0.00  0.00    -0.382 OA
ATOM     19  HG1 THR A   6      12.036  49.067   4.448  0.00  0.00    +0.210 HD
ENDBRANCH  16  18
ENDBRANCH  15  16
BRANCH  15  20
ATOM     20  C   THR A   6      12.473  48.433   8.043  0.00  0.00    +0.229 C 
ATOM     21  O   THR A   6      13.253  49.289   8.447  0.00  0.00    -0.286 OA
ENDBRANCH  15  20
ENDBRANCH  13  15
ENDBRANCH  10  11
BRANCH  10  22
ATOM     22  CB  ILE A   5      10.262  52.317  10.733  0.00  0.00    +0.027 C 
ATOM     23  CG2 ILE A   5      11.820  52.268  10.671  0.00  0.00    +0.002 C 
BRANCH  22  24
ATOM     24  CG1 ILE A   5       9.728  53.699  11.187  0.00  0.00    +0.002 C 
ATOM     25  CD1 ILE A   5       9.876  54.828  10.144  0.00  0.00    +0.000 C 
ENDBRANCH  22  24
ENDBRANCH  10  22
ENDBRANCH   7  10
ENDBRANCH   5   6
BRANCH   5  26
ATOM     26  CB  ILE A   4       5.421  50.910   7.645  0.00  0.00    +0.027 C 
ATOM     27  CG2 ILE A   4       6.346  49.689   7.802  0.00  0.00    +0.002 C 
BRANCH  26  28
ATOM     28  CG1 ILE A   4       3.969  50.590   8.048  0.00  0.00    +0.002 C 
ATOM     29  CD1 ILE A   4       3.169  49.888   6.985  0.00  0.00    +0.000 C 
ENDBRANCH  26  28
ENDBRANCH   5  26
ENDBRANCH   3   5
BRANCH   1  30
ATOM     30  CA  PHE A   3       4.535  55.624   8.360  0.00  0.00    +0.153 C 
BRANCH  30  33
ATOM     31  C   SER A   2       3.152  56.945   9.870  0.00  0.00    +0.243 C 
ATOM     32  O   SER A   2       2.119  56.384   9.510  0.00  0.00    -0.273 OA
ATOM     33  N   PHE A   3       4.354  56.582   9.431  0.00  0.00    -0.297 N 
ATOM     34  H   PHE A   3       5.196  57.002   9.874  0.00  0.00    +0.150 HD
BRANCH  31  35
ATOM     35  CA  SER A   2       3.108  58.106  10.855  0.00  0.00    +0.178 C 
BRANCH  35  38
ATOM     36  C   SER A   1       4.842  57.483  12.450  0.00  0.00    +0.241 C 
ATOM     37  O   SER A   1       4.154  56.569  12.907  0.00  0.00    -0.274 OA
ATOM     38  N   SER A   2       4.401  58.323  11.513  0.00  0.00    -0.295 N 
ATOM     39  H   SER A   2       4.982  59.143  11.245  0.00  0.00    +0.150 HD
BRANCH  36  40
ATOM     40  CA  SER A   1       6.280  57.690  12.921  0.00  0.00    +0.174 C 
BRANCH  40  41
ATOM     41  N   SER A   1       6.498  57.561  14.366  0.00  0.00    -0.236 NA
ATOM     42  H   SER A   1       6.718  56.631  14.776  0.00  0.00    +0.142 HD
ENDBRANCH  40  41
BRANCH  40  43
ATOM     43  CB  SER A   1       7.219  56.744  12.179  0.00  0.00    +0.163 C 
BRANCH  43  44
ATOM     44  OG  SER A   1       7.034  56.886  10.764  0.00  0.00    -0.380 OA
ATOM     45  H   SER A   1       7.232  57.819  10.498  0.00  0.00    +0.211 HD
ENDBRANCH  43  44
ENDBRANCH  40  43
ENDBRANCH  36  40
ENDBRANCH  35  38
BRANCH  35  46
ATOM     46  CB  SER A   2       2.699  59.385  10.098  0.00  0.00    +0.166 C 
BRANCH  46  47
ATOM     47  OG  SER A   2       2.649  60.489  11.001  0.00  0.00    -0.380 OA
ATOM     48  H   SER A   2       3.542  60.621  11.408  0.00  0.00    +0.211 HD
ENDBRANCH  46  47
ENDBRANCH  35  46
ENDBRANCH  31  35
ENDBRANCH  30  33
BRANCH  30  49
ATOM     49  CB  PHE A   3       5.254  56.309   7.172  0.00  0.00    +0.055 C 
BRANCH  49  50
ATOM     50  CG  PHE A   3       4.535  57.520   6.665  0.00  0.00    -0.020 A 
ATOM     51  CD2 PHE A   3       4.866  58.765   7.124  0.00  0.00    -0.004 A 
ATOM     52  CE2 PHE A   3       4.179  59.915   6.675  0.00  0.00    -0.000 A 
ATOM     53  CZ  PHE A   3       3.136  59.768   5.781  0.00  0.00    -0.000 A 
ATOM     54  CE1 PHE A   3       2.793  58.528   5.323  0.00  0.00    -0.000 A 
ATOM     55  CD1 PHE A   3       3.504  57.391   5.759  0.00  0.00    -0.004 A 
ENDBRANCH  49  50
ENDBRANCH  30  49
ENDBRANCH   1  30
TORSDOF 24
REMARK  Name = ../refined-set-2016/2vwn/2vwn_pocket.pdb
REMARK  226 active torsions:
REMARK  status: ('A' for Active; 'I' for Inactive)
REMARK    1  A    between atoms: _1  and  _5
REMARK    2  A    between atoms: _5  and  _6
REMARK    3  A    between atoms: _5  and  _8
REMARK    4  A    between atoms: _8  and  _9
REMARK    5  A    between atoms: _12  and  _14
REMARK    6  A    between atoms: _14  and  _15
REMARK    7  A    between atoms: _14  and  _17
REMARK    8  A    between atoms: _20  and  _22
REMARK    9  A    between atoms: _22  and  _23
REMARK   10  A    between atoms: _22  and  _25
REMARK   11  A    between atoms: _25  and  _26
REMARK   12  A    between atoms: _31  and  _33
REMARK   13  A    between atoms: _33  and  _34
REMARK   14  A    between atoms: _33  and  _36
REMARK   15  A    between atoms: _36  and  _37
REMARK   16  A    between atoms: _37  and  _38
REMARK   17  A    between atoms: _43  and  _45
REMARK   18  A    between atoms: _45  and  _46
REMARK   19  A    between atoms: _45  and  _48
REMARK   20  A    between atoms: _48  and  _49
REMARK   21  A    between atoms: _52  and  _54
REMARK   22  A    between atoms: _54  and  _55
REMARK   23  A    between atoms: _54  and  _57
REMARK   24  A    between atoms: _57  and  _58
REMARK   25  A    between atoms: _58  and  _59
REMARK   26  A    between atoms: _59  and  _60
REMARK   27  A    between atoms: _60  and  _61
REMARK   28  A    between atoms: _65  and  _67
REMARK   29  A    between atoms: _67  and  _68
REMARK   30  A    between atoms: _67  and  _70
REMARK   31  A    between atoms: _70  and  _71
REMARK   32  A    between atoms: _71  and  _72
REMARK   33  A    between atoms: _75  and  _77
REMARK   34  A    between atoms: _77  and  _78
REMARK   35  A    between atoms: _77  and  _80
REMARK   36  A    between atoms: _80  and  _81
REMARK   37  A    between atoms: _84  and  _86
REMARK   38  A    between atoms: _86  and  _87
REMARK   39  A    between atoms: _86  and  _89
REMARK   40  A    between atoms: _89  and  _90
REMARK   41  A    between atoms: _95  and  _96
REMARK   42  A    between atoms: _98  and  _100
REMARK   43  A    between atoms: _100  and  _101
REMARK   44  A    between atoms: _100  and  _103
REMARK   45  A    between atoms: _103  and  _104
REMARK   46  A    between atoms: _107  and  _109
REMARK   47  A    between atoms: _109  and  _110
REMARK   48  A    between atoms: _109  and  _112
REMARK   49  A    between atoms: _112  and  _113
REMARK   50  A    between atoms: _116  and  _118
REMARK   51  A    between atoms: _118  and  _119
REMARK   52  A    between atoms: _118  and  _121
REMARK   53  A    between atoms: _124  and  _126
REMARK   54  A    between atoms: _126  and  _127
REMARK   55  A    between atoms: _126  and  _129
REMARK   56  A    between atoms: _129  and  _130
REMARK   57  A    between atoms: _130  and  _131
REMARK   58  A    between atoms: _131  and  _132
REMARK   59  A    between atoms: _141  and  _143
REMARK   60  A    between atoms: _143  and  _144
REMARK   61  A    between atoms: _143  and  _146
REMARK   62  A    between atoms: _146  and  _147
REMARK   63  A    between atoms: _152  and  _154
REMARK   64  A    between atoms: _154  and  _155
REMARK   65  A    between atoms: _154  and  _157
REMARK   66  A    between atoms: _157  and  _158
REMARK   67  A    between atoms: _158  and  _159
REMARK   68  A    between atoms: _162  and  _164
REMARK   69  A    between atoms: _164  and  _165
REMARK   70  A    between atoms: _164  and  _167
REMARK   71  A    between atoms: _167  and  _168
REMARK   72  A    between atoms: _168  and  _169
REMARK   73  A    between atoms: _169  and  _170
REMARK   74  A    between atoms: _170  and  _171
REMARK   75  A    between atoms: _175  and  _177
REMARK   76  A    between atoms: _177  and  _178
REMARK   77  A    between atoms: _180  and  _182
REMARK   78  A    between atoms: _182  and  _183
REMARK   79  A    between atoms: _182  and  _185
REMARK   80  A    between atoms: _185  and  _186
REMARK   81  A    between atoms: _186  and  _187
REMARK   82  A    between atoms: _192  and  _194
REMARK   83  A    between atoms: _194  and  _195
REMARK   84  A    between atoms: _194  and  _197
REMARK   85  A    between atoms: _200  and  _202
REMARK   86  A    between atoms: _202  and  _203
REMARK   87  A    between atoms: _202  and  _205
REMARK   88  A    between atoms: _205  and  _206
REMARK   89  A    between atoms: _208  and  _210
REMARK   90  A    between atoms: _210  and  _211
REMARK   91  A    between atoms: _210  and  _213
REMARK   92  A    between atoms: _213  and  _214
REMARK   93  A    between atoms: _216  and  _218
REMARK   94  A    between atoms: _218  and  _219
REMARK   95  A    between atoms: _218  and  _221
REMARK   96  A    between atoms: _221  and  _222
REMARK   97  A    between atoms: _228  and  _230
REMARK   98  A    between atoms: _230  and  _231
REMARK   99  A    between atoms: _230  and  _233
REMARK  100  A    between atoms: _233  and  _234
REMARK  101  A    between atoms: _237  and  _239
REMARK  102  A    between atoms: _239  and  _240
REMARK  103  A    between atoms: _239  and  _242
REMARK  104  A    between atoms: _242  and  _243
REMARK  105  A    between atoms: _246  and  _248
REMARK  106  A    between atoms: _248  and  _249
REMARK  107  A    between atoms: _248  and  _251
REMARK  108  A    between atoms: _251  and  _252
REMARK  109  A    between atoms: _255  and  _257
REMARK  110  A    between atoms: _257  and  _258
REMARK  111  A    between atoms: _257  and  _260
REMARK  112  A    between atoms: _260  and  _261
REMARK  113  A    between atoms: _261  and  _262
REMARK  114  A    between atoms: _264  and  _266
REMARK  115  A    between atoms: _266  and  _267
REMARK  116  A    between atoms: _266  and  _269
REMARK  117  A    between atoms: _269  and  _270
REMARK  118  A    between atoms: _276  and  _278
REMARK  119  A    between atoms: _278  and  _279
REMARK  120  A    between atoms: _278  and  _281
REMARK  121  A    between atoms: _283  and  _285
REMARK  122  A    between atoms: _285  and  _286
REMARK  123  A    between atoms: _289  and  _291
REMARK  124  A    between atoms: _291  and  _292
REMARK  125  A    between atoms: _294  and  _296
REMARK  126  A    between atoms: _296  and  _297
REMARK  127  A    between atoms: _296  and  _299
REMARK  128  A    between atoms: _299  and  _300
REMARK  129  A    between atoms: _300  and  _301
REMARK  130  A    between atoms: _304  and  _306
REMARK  131  A    between atoms: _306  and  _307
REMARK  132  A    between atoms: _306  and  _309
REMARK  133  A    between atoms: _309  and  _310
REMARK  134  A    between atoms: _313  and  _315
REMARK  135  A    between atoms: _315  and  _316
REMARK  136  A    between atoms: _319  and  _321
REMARK  137  A    between atoms: _321  and  _322
REMARK  138  A    between atoms: _321  and  _324
REMARK  139  A    between atoms: _324  and  _325
REMARK  140  A    between atoms: _325  and  _448
REMARK  141  A    between atoms: _326  and  _328
REMARK  142  A    between atoms: _328  and  _329
REMARK  143  A    between atoms: _328  and  _331
REMARK  144  A    between atoms: _331  and  _332
REMARK  145  A    between atoms: _332  and  _333
REMARK  146  A    between atoms: _338  and  _340
REMARK  147  A    between atoms: _340  and  _341
REMARK  148  A    between atoms: _343  and  _345
REMARK  149  A    between atoms: _345  and  _346
REMARK  150  A    between atoms: _345  and  _348
REMARK  151  A    between atoms: _348  and  _349
REMARK  152  A    between atoms: _352  and  _354
REMARK  153  A    between atoms: _354  and  _355
REMARK  154  A    between atoms: _354  and  _357
REMARK  155  A    between atoms: _357  and  _358
REMARK  156  A    between atoms: _360  and  _362
REMARK  157  A    between atoms: _362  and  _363
REMARK  158  A    between atoms: _365  and  _367
REMARK  159  A    between atoms: _367  and  _368
REMARK  160  A    between atoms: _370  and  _372
REMARK  161  A    between atoms: _372  and  _373
REMARK  162  A    between atoms: _372  and  _375
REMARK  163  A    between atoms: _375  and  _376
REMARK  164  A    between atoms: _381  and  _383
REMARK  165  A    between atoms: _383  and  _384
REMARK  166  A    between atoms: _383  and  _386
REMARK  167  A    between atoms: _386  and  _387
REMARK  168  A    between atoms: _390  and  _392
REMARK  169  A    between atoms: _392  and  _393
REMARK  170  A    between atoms: _392  and  _395
REMARK  171  A    between atoms: _398  and  _400
REMARK  172  A    between atoms: _400  and  _401
REMARK  173  A    between atoms: _400  and  _403
REMARK  174  A    between atoms: _403  and  _404
REMARK  175  A    between atoms: _406  and  _408
REMARK  176  A    between atoms: _408  and  _409
REMARK  177  A    between atoms: _408  and  _411
REMARK  178  A    between atoms: _411  and  _412
REMARK  179  A    between atoms: _422  and  _424
REMARK  180  A    between atoms: _424  and  _425
REMARK  181  A    between atoms: _427  and  _429
REMARK  182  A    between atoms: _429  and  _430
REMARK  183  A    between atoms: _429  and  _432
REMARK  184  A    between atoms: _432  and  _433
REMARK  185  A    between atoms: _433  and  _434
REMARK  186  A    between atoms: _437  and  _439
REMARK  187  A    between atoms: _439  and  _440
REMARK  188  A    between atoms: _442  and  _444
REMARK  189  A    between atoms: _444  and  _445
REMARK  190  A    between atoms: _444  and  _447
REMARK  191  A    between atoms: _447  and  _448
REMARK  192  A    between atoms: _449  and  _451
REMARK  193  A    between atoms: _451  and  _452
REMARK  194  A    between atoms: _455  and  _457
REMARK  195  A    between atoms: _457  and  _458
REMARK  196  A    between atoms: _457  and  _460
REMARK  197  A    between atoms: _460  and  _461
REMARK  198  A    between atoms: _461  and  _462
REMARK  199  A    between atoms: _462  and  _463
REMARK  200  A    between atoms: _472  and  _474
REMARK  201  A    between atoms: _474  and  _475
REMARK  202  A    between atoms: _474  and  _477
REMARK  203  A    between atoms: _477  and  _478
REMARK  204  A    between atoms: _478  and  _479
REMARK  205  A    between atoms: _479  and  _480
REMARK  206  A    between atoms: _480  and  _481
REMARK  207  A    between atoms: _485  and  _487
REMARK  208  A    between atoms: _487  and  _488
REMARK  209  A    between atoms: _487  and  _490
REMARK  210  A    between atoms: _490  and  _491
REMARK  211  A    between atoms: _496  and  _497
REMARK  212  A    between atoms: _499  and  _501
REMARK  213  A    between atoms: _501  and  _502
REMARK  214  A    between atoms: _504  and  _506
REMARK  215  A    between atoms: _506  and  _507
REMARK  216  A    between atoms: _506  and  _509
REMARK  217  A    between atoms: _509  and  _510
REMARK  218  A    between atoms: _513  and  _515
REMARK  219  A    between atoms: _515  and  _516
REMARK  220  A    between atoms: _515  and  _518
REMARK  221  A    between atoms: _518  and  _519
REMARK  222  A    between atoms: _524  and  _525
REMARK  223  A    between atoms: _527  and  _529
REMARK  224  A    between atoms: _529  and  _530
REMARK  225  A    between atoms: _529  and  _532
REMARK  226  A    between atoms: _532  and  _533
REMARK                            x       y       z     vdW  Elec       q    Type
REMARK                         _______ _______ _______ _____ _____    ______ ____
ROOT
ATOM      1  C   PHE A   2      16.678  54.689  10.724  0.00  0.00    +0.241 C 
ATOM      2  N   CYS A   3      16.594  55.028  12.016  0.00  0.00    -0.296 N 
ATOM      3  H   CYS A   3      16.798  54.316  12.746  0.00  0.00    +0.150 HD
ATOM      4  O   PHE A   2      16.564  55.546   9.801  0.00  0.00    -0.273 OA
ENDROOT
BRANCH   2   5
ATOM      5  CA  CYS A   3      16.227  56.357  12.411  0.00  0.00    +0.160 C 
BRANCH   5   6
ATOM      6  C   CYS A   3      17.402  57.002  13.133  0.00  0.00    +0.242 C 
ATOM      7  O   CYS A   3      18.194  56.310  13.808  0.00  0.00    -0.273 OA
ATOM      8  N   ALA A   4      17.534  58.304  12.933  0.00  0.00    -0.297 N 
ATOM      9  H   ALA A   4      16.888  58.798  12.285  0.00  0.00    +0.150 HD
BRANCH   8  10
ATOM     10  CA  ALA A   4      18.586  59.048  13.622  0.00  0.00    +0.149 C 
ATOM     11  CB  ALA A   4      19.919  58.908  12.873  0.00  0.00    +0.031 C 
BRANCH  10  12
ATOM     12  C   ALA A   4      18.184  60.497  13.759  0.00  0.00    +0.241 C 
ATOM     13  N   GLY A   5      18.784  61.169  14.738  0.00  0.00    -0.296 N 
ATOM     14  H   GLY A   5      19.495  60.688  15.325  0.00  0.00    +0.150 HD
ATOM     15  O   ALA A   4      17.387  61.027  12.973  0.00  0.00    -0.273 OA
BRANCH  13  16
ATOM     16  CA  GLY A   5      18.466  62.558  15.002  0.00  0.00    +0.163 C 
BRANCH  16  17
ATOM     17  C   GLY A   5      17.980  62.791  16.417  0.00  0.00    +0.229 C 
ATOM     18  O   GLY A   5      18.360  62.055  17.317  0.00  0.00    -0.286 OA
ENDBRANCH  16  17
ENDBRANCH  13  16
ENDBRANCH  10  12
ENDBRANCH   8  10
ENDBRANCH   5   6
BRANCH   5  19
ATOM     19  CB  CYS A   3      15.036  56.275  13.348  0.00  0.00    +0.098 C 
ATOM     20  SG  CYS A   3      13.703  55.324  12.582  0.00  0.00    -0.080 S 
ENDBRANCH   5  19
ENDBRANCH   2   5
BRANCH   1  21
ATOM     21  CA  PHE A   2      16.924  53.223  10.421  0.00  0.00    +0.153 C 
BRANCH  21  24
ATOM     22  C   MET A   1      16.111  51.823   8.610  0.00  0.00    +0.238 C 
ATOM     23  O   MET A   1      16.043  50.814   9.326  0.00  0.00    -0.274 OA
ATOM     24  N   PHE A   2      16.670  52.969   9.004  0.00  0.00    -0.297 N 
ATOM     25  H   PHE A   2      16.927  53.687   8.297  0.00  0.00    +0.150 HD
BRANCH  22  26
ATOM     26  CA  MET A   1      15.535  51.822   7.221  0.00  0.00    +0.146 C 
BRANCH  26  27
ATOM     27  N   MET A   1      15.405  50.455   6.758  0.00  0.00    -0.238 NA
ATOM     28  H   MET A   1      14.887  49.779   7.354  0.00  0.00    +0.142 HD
ENDBRANCH  26  27
BRANCH  26  29
ATOM     29  CB  MET A   1      14.150  52.453   7.313  0.00  0.00    +0.038 C 
BRANCH  29  30
ATOM     30  CG  MET A   1      13.394  52.403   5.979  0.00  0.00    +0.060 C 
BRANCH  30  31
ATOM     31  SD  MET A   1      11.709  53.036   6.223  0.00  0.00    -0.139 S 
ATOM     32  CE  MET A   1      10.959  52.590   4.643  0.00  0.00    +0.069 C 
ENDBRANCH  30  31
ENDBRANCH  29  30
ENDBRANCH  26  29
ENDBRANCH  22  26
ENDBRANCH  21  24
BRANCH  21  33
ATOM     33  CB  PHE A   2      18.342  52.770  10.850  0.00  0.00    +0.055 C 
BRANCH  33  34
ATOM     34  CG  PHE A   2      19.447  53.647  10.315  0.00  0.00    -0.020 A 
ATOM     35  CD2 PHE A   2      19.872  54.765  11.015  0.00  0.00    -0.004 A 
ATOM     36  CE2 PHE A   2      20.922  55.584  10.522  0.00  0.00    -0.000 A 
ATOM     37  CZ  PHE A   2      21.537  55.237   9.349  0.00  0.00    -0.000 A 
ATOM     38  CE1 PHE A   2      21.094  54.118   8.628  0.00  0.00    -0.000 A 
ATOM     39  CD1 PHE A   2      20.071  53.314   9.127  0.00  0.00    -0.004 A 
ENDBRANCH  33  34
ENDBRANCH  21  33
ENDBRANCH   1  21
TORSDOF 16
REMARK  Name = ../refined-set-2016/2vwn/2vwn_pocket.pdb
REMARK  226 active torsions:
REMARK  status: ('A' for Active; 'I' for Inactive)
REMARK    1  A    between atoms: _1  and  _5
REMARK    2  A    between atoms: _5  and  _6
REMARK    3  A    between atoms: _5  and  _8
REMARK    4  A    between atoms: _8  and  _9
REMARK    5  A    between atoms: _12  and  _14
REMARK    6  A    between atoms: _14  and  _15
REMARK    7  A    between atoms: _14  and  _17
REMARK    8  A    between atoms: _20  and  _22
REMARK    9  A    between atoms: _22  and  _23
REMARK   10  A    between atoms: _22  and  _25
REMARK   11  A    between atoms: _25  and  _26
REMARK   12  A    between atoms: _31  and  _33
REMARK   13  A    between atoms: _33  and  _34
REMARK   14  A    between atoms: _33  and  _36
REMARK   15  A    between atoms: _36  and  _37
REMARK   16  A    between atoms: _37  and  _38
REMARK   17  A    between atoms: _43  and  _45
REMARK   18  A    between atoms: _45  and  _46
REMARK   19  A    between atoms: _45  and  _48
REMARK   20  A    between atoms: _48  and  _49
REMARK   21  A    between atoms: _52  and  _54
REMARK   22  A    between atoms: _54  and  _55
REMARK   23  A    between atoms: _54  and  _57
REMARK   24  A    between atoms: _57  and  _58
REMARK   25  A    between atoms: _58  and  _59
REMARK   26  A    between atoms: _59  and  _60
REMARK   27  A    between atoms: _60  and  _61
REMARK   28  A    between atoms: _65  and  _67
REMARK   29  A    between atoms: _67  and  _68
REMARK   30  A    between atoms: _67  and  _70
REMARK   31  A    between atoms: _70  and  _71
REMARK   32  A    between atoms: _71  and  _72
REMARK   33  A    between atoms: _75  and  _77
REMARK   34  A    between atoms: _77  and  _78
REMARK   35  A    between atoms: _77  and  _80
REMARK   36  A    between atoms: _80  and  _81
REMARK   37  A    between atoms: _84  and  _86
REMARK   38  A    between atoms: _86  and  _87
REMARK   39  A    between atoms: _86  and  _89
REMARK   40  A    between atoms: _89  and  _90
REMARK   41  A    between atoms: _95  and  _96
REMARK   42  A    between atoms: _98  and  _100
REMARK   43  A    between atoms: _100  and  _101
REMARK   44  A    between atoms: _100  and  _103
REMARK   45  A    between atoms: _103  and  _104
REMARK   46  A    between atoms: _107  and  _109
REMARK   47  A    between atoms: _109  and  _110
REMARK   48  A    between atoms: _109  and  _112
REMARK   49  A    between atoms: _112  and  _113
REMARK   50  A    between atoms: _116  and  _118
REMARK   51  A    between atoms: _118  and  _119
REMARK   52  A    between atoms: _118  and  _121
REMARK   53  A    between atoms: _124  and  _126
REMARK   54  A    between atoms: _126  and  _127
REMARK   55  A    between atoms: _126  and  _129
REMARK   56  A    between atoms: _129  and  _130
REMARK   57  A    between atoms: _130  and  _131
REMARK   58  A    between atoms: _131  and  _132
REMARK   59  A    between atoms: _141  and  _143
REMARK   60  A    between atoms: _143  and  _144
REMARK   61  A    between atoms: _143  and  _146
REMARK   62  A    between atoms: _146  and  _147
REMARK   63  A    between atoms: _152  and  _154
REMARK   64  A    between atoms: _154  and  _155
REMARK   65  A    between atoms: _154  and  _157
REMARK   66  A    between atoms: _157  and  _158
REMARK   67  A    between atoms: _158  and  _159
REMARK   68  A    between atoms: _162  and  _164
REMARK   69  A    between atoms: _164  and  _165
REMARK   70  A    between atoms: _164  and  _167
REMARK   71  A    between atoms: _167  and  _168
REMARK   72  A    between atoms: _168  and  _169
REMARK   73  A    between atoms: _169  and  _170
REMARK   74  A    between atoms: _170  and  _171
REMARK   75  A    between atoms: _175  and  _177
REMARK   76  A    between atoms: _177  and  _178
REMARK   77  A    between atoms: _180  and  _182
REMARK   78  A    between atoms: _182  and  _183
REMARK   79  A    between atoms: _182  and  _185
REMARK   80  A    between atoms: _185  and  _186
REMARK   81  A    between atoms: _186  and  _187
REMARK   82  A    between atoms: _192  and  _194
REMARK   83  A    between atoms: _194  and  _195
REMARK   84  A    between atoms: _194  and  _197
REMARK   85  A    between atoms: _200  and  _202
REMARK   86  A    between atoms: _202  and  _203
REMARK   87  A    between atoms: _202  and  _205
REMARK   88  A    between atoms: _205  and  _206
REMARK   89  A    between atoms: _208  and  _210
REMARK   90  A    between atoms: _210  and  _211
REMARK   91  A    between atoms: _210  and  _213
REMARK   92  A    between atoms: _213  and  _214
REMARK   93  A    between atoms: _216  and  _218
REMARK   94  A    between atoms: _218  and  _219
REMARK   95  A    between atoms: _218  and  _221
REMARK   96  A    between atoms: _221  and  _222
REMARK   97  A    between atoms: _228  and  _230
REMARK   98  A    between atoms: _230  and  _231
REMARK   99  A    between atoms: _230  and  _233
REMARK  100  A    between atoms: _233  and  _234
REMARK  101  A    between atoms: _237  and  _239
REMARK  102  A    between atoms: _239  and  _240
REMARK  103  A    between atoms: _239  and  _242
REMARK  104  A    between atoms: _242  and  _243
REMARK  105  A    between atoms: _246  and  _248
REMARK  106  A    between atoms: _248  and  _249
REMARK  107  A    between atoms: _248  and  _251
REMARK  108  A    between atoms: _251  and  _252
REMARK  109  A    between atoms: _255  and  _257
REMARK  110  A    between atoms: _257  and  _258
REMARK  111  A    between atoms: _257  and  _260
REMARK  112  A    between atoms: _260  and  _261
REMARK  113  A    between atoms: _261  and  _262
REMARK  114  A    between atoms: _264  and  _266
REMARK  115  A    between atoms: _266  and  _267
REMARK  116  A    between atoms: _266  and  _269
REMARK  117  A    between atoms: _269  and  _270
REMARK  118  A    between atoms: _276  and  _278
REMARK  119  A    between atoms: _278  and  _279
REMARK  120  A    between atoms: _278  and  _281
REMARK  121  A    between atoms: _283  and  _285
REMARK  122  A    between atoms: _285  and  _286
REMARK  123  A    between atoms: _289  and  _291
REMARK  124  A    between atoms: _291  and  _292
REMARK  125  A    between atoms: _294  and  _296
REMARK  126  A    between atoms: _296  and  _297
REMARK  127  A    between atoms: _296  and  _299
REMARK  128  A    between atoms: _299  and  _300
REMARK  129  A    between atoms: _300  and  _301
REMARK  130  A    between atoms: _304  and  _306
REMARK  131  A    between atoms: _306  and  _307
REMARK  132  A    between atoms: _306  and  _309
REMARK  133  A    between atoms: _309  and  _310
REMARK  134  A    between atoms: _313  and  _315
REMARK  135  A    between atoms: _315  and  _316
REMARK  136  A    between atoms: _319  and  _321
REMARK  137  A    between atoms: _321  and  _322
REMARK  138  A    between atoms: _321  and  _324
REMARK  139  A    between atoms: _324  and  _325
REMARK  140  A    between atoms: _325  and  _448
REMARK  141  A    between atoms: _326  and  _328
REMARK  142  A    between atoms: _328  and  _329
REMARK  143  A    between atoms: _328  and  _331
REMARK  144  A    between atoms: _331  and  _332
REMARK  145  A    between atoms: _332  and  _333
REMARK  146  A    between atoms: _338  and  _340
REMARK  147  A    between atoms: _340  and  _341
REMARK  148  A    between atoms: _343  and  _345
REMARK  149  A    between atoms: _345  and  _346
REMARK  150  A    between atoms: _345  and  _348
REMARK  151  A    between atoms: _348  and  _349
REMARK  152  A    between atoms: _352  and  _354
REMARK  153  A    between atoms: _354  and  _355
REMARK  154  A    between atoms: _354  and  _357
REMARK  155  A    between atoms: _357  and  _358
REMARK  156  A    between atoms: _360  and  _362
REMARK  157  A    between atoms: _362  and  _363
REMARK  158  A    between atoms: _365  and  _367
REMARK  159  A    between atoms: _367  and  _368
REMARK  160  A    between atoms: _370  and  _372
REMARK  161  A    between atoms: _372  and  _373
REMARK  162  A    between atoms: _372  and  _375
REMARK  163  A    between atoms: _375  and  _376
REMARK  164  A    between atoms: _381  and  _383
REMARK  165  A    between atoms: _383  and  _384
REMARK  166  A    between atoms: _383  and  _386
REMARK  167  A    between atoms: _386  and  _387
REMARK  168  A    between atoms: _390  and  _392
REMARK  169  A    between atoms: _392  and  _393
REMARK  170  A    between atoms: _392  and  _395
REMARK  171  A    between atoms: _398  and  _400
REMARK  172  A    between atoms: _400  and  _401
REMARK  173  A    between atoms: _400  and  _403
REMARK  174  A    between atoms: _403  and  _404
REMARK  175  A    between atoms: _406  and  _408
REMARK  176  A    between atoms: _408  and  _409
REMARK  177  A    between atoms: _408  and  _411
REMARK  178  A    between atoms: _411  and  _412
REMARK  179  A    between atoms: _422  and  _424
REMARK  180  A    between atoms: _424  and  _425
REMARK  181  A    between atoms: _427  and  _429
REMARK  182  A    between atoms: _429  and  _430
REMARK  183  A    between atoms: _429  and  _432
REMARK  184  A    between atoms: _432  and  _433
REMARK  185  A    between atoms: _433  and  _434
REMARK  186  A    between atoms: _437  and  _439
REMARK  187  A    between atoms: _439  and  _440
REMARK  188  A    between atoms: _442  and  _444
REMARK  189  A    between atoms: _444  and  _445
REMARK  190  A    between atoms: _444  and  _447
REMARK  191  A    between atoms: _447  and  _448
REMARK  192  A    between atoms: _449  and  _451
REMARK  193  A    between atoms: _451  and  _452
REMARK  194  A    between atoms: _455  and  _457
REMARK  195  A    between atoms: _457  and  _458
REMARK  196  A    between atoms: _457  and  _460
REMARK  197  A    between atoms: _460  and  _461
REMARK  198  A    between atoms: _461  and  _462
REMARK  199  A    between atoms: _462  and  _463
REMARK  200  A    between atoms: _472  and  _474
REMARK  201  A    between atoms: _474  and  _475
REMARK  202  A    between atoms: _474  and  _477
REMARK  203  A    between atoms: _477  and  _478
REMARK  204  A    between atoms: _478  and  _479
REMARK  205  A    between atoms: _479  and  _480
REMARK  206  A    between atoms: _480  and  _481
REMARK  207  A    between atoms: _485  and  _487
REMARK  208  A    between atoms: _487  and  _488
REMARK  209  A    between atoms: _487  and  _490
REMARK  210  A    between atoms: _490  and  _491
REMARK  211  A    between atoms: _496  and  _497
REMARK  212  A    between atoms: _499  and  _501
REMARK  213  A    between atoms: _501  and  _502
REMARK  214  A    between atoms: _504  and  _506
REMARK  215  A    between atoms: _506  and  _507
REMARK  216  A    between atoms: _506  and  _509
REMARK  217  A    between atoms: _509  and  _510
REMARK  218  A    between atoms: _513  and  _515
REMARK  219  A    between atoms: _515  and  _516
REMARK  220  A    between atoms: _515  and  _518
REMARK  221  A    between atoms: _518  and  _519
REMARK  222  A    between atoms: _524  and  _525
REMARK  223  A    between atoms: _527  and  _529
REMARK  224  A    between atoms: _529  and  _530
REMARK  225  A    between atoms: _529  and  _532
REMARK  226  A    between atoms: _532  and  _533
REMARK                            x       y       z     vdW  Elec       q    Type
REMARK                         _______ _______ _______ _____ _____    ______ ____
ROOT
ATOM      1  CA  SER A   8      12.464  68.660   9.165  0.00  0.00    +0.160 C 
ENDROOT
BRANCH   1   2
ATOM      2  C   SER A   8      12.512  69.164  10.590  0.00  0.00    +0.242 C 
ATOM      3  N   GLY A   9      13.212  68.421  11.449  0.00  0.00    -0.297 N 
ATOM      4  H   GLY A   9      13.605  67.519  11.112  0.00  0.00    +0.150 HD
ATOM      5  O   SER A   8      11.929  70.202  10.887  0.00  0.00    -0.273 OA
BRANCH   3   6
ATOM      6  CA  GLY A   9      13.458  68.807  12.845  0.00  0.00    +0.149 C 
ATOM      7  CB  GLY A   9      14.310  70.093  12.892  0.00  0.00    +0.031 C 
BRANCH   6   8
ATOM      8  C   GLY A   9      12.178  68.998  13.646  0.00  0.00    +0.241 C 
ATOM      9  O   GLY A   9      12.147  69.815  14.571  0.00  0.00    -0.273 OA
ATOM     10  N   GLY A  10      11.113  68.284  13.285  0.00  0.00    -0.298 N 
ATOM     11  H   GLY A  10      11.176  67.634  12.475  0.00  0.00    +0.150 HD
BRANCH  10  12
ATOM     12  CA  GLY A  10       9.853  68.409  14.023  0.00  0.00    +0.137 C 
BRANCH  12  13
ATOM     13  C   GLY A  10       9.964  67.725  15.377  0.00  0.00    +0.227 C 
ATOM     14  O   GLY A  10      10.630  66.688  15.535  0.00  0.00    -0.286 OA
ENDBRANCH  12  13
BRANCH  12  15
ATOM     15  CB  GLY A  10       8.669  67.859  13.238  0.00  0.00    +0.031 C 
BRANCH  15  16
ATOM     16  CG  GLY A  10       8.296  68.717  12.063  0.00  0.00    +0.045 C 
BRANCH  16  17
ATOM     17  CD  GLY A  10       6.949  68.309  11.512  0.00  0.00    +0.174 C 
BRANCH  17  18
ATOM     18  NE  GLY A  10       6.705  68.965  10.236  0.00  0.00    -0.265 N 
ATOM     19  HE  GLY A  10       7.398  69.668   9.909  0.00  0.00    +0.259 HD
ATOM     20  CZ  GLY A  10       5.653  68.723   9.462  0.00  0.00    +0.342 C 
ATOM     21  NH2 GLY A  10       4.732  67.850   9.850  0.00  0.00    -0.292 N 
ATOM     22 HH21 GLY A  10       4.834  67.356  10.759  0.00  0.00    +0.255 HD
ATOM     23 HH22 GLY A  10       3.908  67.660   9.245  0.00  0.00    +0.255 HD
ATOM     24  NH1 GLY A  10       5.525  69.364   8.299  0.00  0.00    -0.292 N 
ATOM     25 HH11 GLY A  10       6.247  70.050   8.001  0.00  0.00    +0.255 HD
ATOM     26 HH12 GLY A  10       4.703  69.177   7.690  0.00  0.00    +0.255 HD
ENDBRANCH  17  18
ENDBRANCH  16  17
ENDBRANCH  15  16
ENDBRANCH  12  15
ENDBRANCH  10  12
ENDBRANCH   6   8
ENDBRANCH   3   6
ENDBRANCH   1   2
BRANCH   1  27
ATOM     27  N   SER A   8      11.058  68.651   8.738  0.00  0.00    -0.296 N 
ATOM     28  H   SER A   8      10.444  69.440   9.023  0.00  0.00    +0.150 HD
ATOM     29  C   ASP A   7      10.539  67.669   7.998  0.00  0.00    +0.243 C 
ATOM     30  O   ASP A   7      11.215  66.717   7.543  0.00  0.00    -0.273 OA
BRANCH  29  31
ATOM     31  CA  ASP A   7       9.041  67.768   7.710  0.00  0.00    +0.176 C 
BRANCH  31  32
ATOM     32  N   ASP A   7       8.431  66.447   7.548  0.00  0.00    -0.295 N 
ATOM     33  C   GLY A   6       8.284  65.626   8.589  0.00  0.00    +0.241 C 
ATOM     34  O   GLY A   6       8.390  66.008   9.765  0.00  0.00    -0.273 OA
ATOM     35  H   ASP A   7       8.107  66.144   6.607  0.00  0.00    +0.150 HD
BRANCH  33  36
ATOM     36  CA  GLY A   6       7.966  64.188   8.252  0.00  0.00    +0.149 C 
BRANCH  36  37
ATOM     37  N   GLY A   6       9.238  63.442   8.212  0.00  0.00    -0.297 N 
ATOM     38  H   GLY A   6       9.552  62.925   9.058  0.00  0.00    +0.150 HD
ATOM     39  C   GLN A   5       9.992  63.417   7.115  0.00  0.00    +0.243 C 
ATOM     40  O   GLN A   5       9.605  63.846   6.021  0.00  0.00    -0.273 OA
BRANCH  39  41
ATOM     41  CA  GLN A   5      11.342  62.743   7.252  0.00  0.00    +0.176 C 
BRANCH  41  42
ATOM     42  N   GLN A   5      11.773  62.300   5.912  0.00  0.00    -0.295 N 
ATOM     43  C   TRP A   4      12.643  61.323   5.766  0.00  0.00    +0.241 C 
ATOM     44  O   TRP A   4      13.249  60.817   6.714  0.00  0.00    -0.273 OA
ATOM     45  H   GLN A   5      11.383  62.767   5.069  0.00  0.00    +0.150 HD
BRANCH  43  46
ATOM     46  CA  TRP A   4      12.882  60.874   4.336  0.00  0.00    +0.153 C 
BRANCH  46  47
ATOM     47  N   TRP A   4      14.096  60.078   4.173  0.00  0.00    -0.297 N 
ATOM     48  H   TRP A   4      14.529  59.605   4.992  0.00  0.00    +0.150 HD
ATOM     49  C   SER A   3      14.640  59.966   2.967  0.00  0.00    +0.243 C 
ATOM     50  O   SER A   3      14.166  60.553   1.977  0.00  0.00    -0.273 OA
BRANCH  49  51
ATOM     51  CA  SER A   3      15.867  59.075   2.824  0.00  0.00    +0.178 C 
BRANCH  51  52
ATOM     52  N   SER A   3      17.025  59.601   3.564  0.00  0.00    -0.295 N 
ATOM     53  H   SER A   3      16.988  59.693   4.599  0.00  0.00    +0.150 HD
ATOM     54  C   VAL A   2      18.124  59.960   2.894  0.00  0.00    +0.241 C 
ATOM     55  O   VAL A   2      18.158  60.010   1.682  0.00  0.00    -0.273 OA
BRANCH  54  56
ATOM     56  CA  VAL A   2      19.372  60.298   3.700  0.00  0.00    +0.148 C 
BRANCH  56  57
ATOM     57  N   VAL A   2      20.472  59.436   3.268  0.00  0.00    -0.297 N 
ATOM     58  C   ILE A   1      20.344  58.114   3.299  0.00  0.00    +0.238 C 
ATOM     59  O   ILE A   1      19.327  57.563   3.763  0.00  0.00    -0.274 OA
ATOM     60  H   VAL A   2      21.361  59.861   2.934  0.00  0.00    +0.150 HD
BRANCH  58  61
ATOM     61  CA  ILE A   1      21.500  57.281   2.774  0.00  0.00    +0.145 C 
BRANCH  61  62
ATOM     62  N   ILE A   1      21.793  56.322   3.833  0.00  0.00    -0.238 NA
ATOM     63  H   ILE A   1      21.037  55.683   4.152  0.00  0.00    +0.142 HD
ENDBRANCH  61  62
BRANCH  61  64
ATOM     64  CB  ILE A   1      21.056  56.539   1.513  0.00  0.00    +0.025 C 
ATOM     65  CG2 ILE A   1      20.548  57.530   0.403  0.00  0.00    +0.002 C 
BRANCH  64  66
ATOM     66  CG1 ILE A   1      22.095  55.497   1.024  0.00  0.00    +0.002 C 
ATOM     67  CD1 ILE A   1      21.537  54.547  -0.046  0.00  0.00    +0.000 C 
ENDBRANCH  64  66
ENDBRANCH  61  64
ENDBRANCH  58  61
ENDBRANCH  56  57
BRANCH  56  68
ATOM     68  CB  VAL A   2      19.718  61.799   3.476  0.00  0.00    +0.027 C 
ATOM     69  CG2 VAL A   2      21.024  62.178   4.258  0.00  0.00    +0.002 C 
ATOM     70  CG1 VAL A   2      18.548  62.709   3.941  0.00  0.00    +0.002 C 
ENDBRANCH  56  68
ENDBRANCH  54  56
ENDBRANCH  51  52
BRANCH  51  71
ATOM     71  CB  SER A   3      15.554  57.628   3.241  0.00  0.00    +0.166 C 
BRANCH  71  72
ATOM     72  OG  SER A   3      14.540  57.096   2.377  0.00  0.00    -0.380 OA
ATOM     73  H   SER A   3      14.864  57.110   1.442  0.00  0.00    +0.211 HD
ENDBRANCH  71  72
ENDBRANCH  51  71
ENDBRANCH  49  51
ENDBRANCH  46  47
BRANCH  46  74
ATOM     74  CB  TRP A   4      11.649  60.101   3.796  0.00  0.00    +0.057 C 
BRANCH  74  75
ATOM     75  CG  TRP A   4      11.343  58.755   4.507  0.00  0.00    -0.002 A 
ATOM     76  CD2 TRP A   4      10.433  58.540   5.591  0.00  0.00    +0.013 A 
ATOM     77  CE3 TRP A   4       9.596  59.377   6.332  0.00  0.00    +0.001 A 
ATOM     78  CZ3 TRP A   4       8.814  58.820   7.332  0.00  0.00    +0.000 A 
ATOM     79  CH2 TRP A   4       8.868  57.457   7.611  0.00  0.00    +0.001 A 
ATOM     80  CZ2 TRP A   4       9.685  56.598   6.893  0.00  0.00    +0.017 A 
ATOM     81  CE2 TRP A   4      10.466  57.166   5.890  0.00  0.00    +0.056 A 
ATOM     82  NE1 TRP A   4      11.339  56.566   5.012  0.00  0.00    -0.352 N 
ATOM     83  HE1 TRP A   4      11.557  55.550   4.970  0.00  0.00    +0.166 HD
ATOM     84  CD1 TRP A   4      11.875  57.536   4.199  0.00  0.00    +0.068 A 
ENDBRANCH  74  75
ENDBRANCH  46  74
ENDBRANCH  43  46
ENDBRANCH  41  42
ENDBRANCH  39  41
ENDBRANCH  36  37
BRANCH  36  85
ATOM     85  CB  GLY A   6       6.970  63.558   9.250  0.00  0.00    +0.041 C 
BRANCH  85  86
ATOM     86  CG  GLY A   6       6.623  62.140   8.882  0.00  0.00    +0.116 C 
BRANCH  86  87
ATOM     87  CD  GLY A   6       5.634  61.503   9.817  0.00  0.00    +0.365 C 
ATOM     88  OE2 GLY A   6       5.957  60.443  10.387  0.00  0.00    -0.246 OA
ATOM     89  OE1 GLY A   6       4.532  62.063   9.979  0.00  0.00    -0.246 OA
ENDBRANCH  86  87
ENDBRANCH  85  86
ENDBRANCH  36  85
ENDBRANCH  33  36
ENDBRANCH  31  32
ENDBRANCH  29  31
ENDBRANCH   1  27
BRANCH   1  90
ATOM     90  CB  SER A   8      13.303  69.615   8.308  0.00  0.00    +0.098 C 
BRANCH  90  91
ATOM     91  SG  SER A   8      12.927  69.469   6.588  0.00  0.00    -0.080 S 
BRANCH  91  92
ATOM     92  SG  TRP A   4      14.173  70.791   5.712  0.00  0.00    -0.080 S 
BRANCH  92  93
ATOM     93  CB  TRP A   4      15.800  70.000   5.783  0.00  0.00    +0.098 C 
BRANCH  93  94
ATOM     94  CA  TRP A   4      15.854  68.532   5.291  0.00  0.00    +0.160 C 
BRANCH  94  97
ATOM     95  C   SER A   3      17.102  67.382   7.027  0.00  0.00    +0.241 C 
ATOM     96  O   SER A   3      16.112  67.465   7.766  0.00  0.00    -0.273 OA
ATOM     97  N   TRP A   4      17.070  67.857   5.784  0.00  0.00    -0.296 N 
ATOM     98  H   TRP A   4      17.898  67.753   5.163  0.00  0.00    +0.150 HD
BRANCH  95  99
ATOM     99  CA  SER A   3      18.410  66.764   7.537  0.00  0.00    +0.149 C 
ATOM    100  CB  SER A   3      18.734  65.449   6.830  0.00  0.00    +0.031 C 
BRANCH  99 103
ATOM    101  C   VAL A   2      18.370  67.580   9.809  0.00  0.00    +0.241 C 
ATOM    102  O   VAL A   2      18.817  68.673   9.438  0.00  0.00    -0.273 OA
ATOM    103  N   SER A   3      18.266  66.547   8.984  0.00  0.00    -0.297 N 
ATOM    104  H   SER A   3      18.084  65.593   9.357  0.00  0.00    +0.150 HD
BRANCH 101 105
ATOM    105  CA  VAL A   2      17.920  67.360  11.251  0.00  0.00    +0.160 C 
BRANCH 105 108
ATOM    106  C   ILE A   1      18.261  68.475  13.404  0.00  0.00    +0.238 C 
ATOM    107  O   ILE A   1      17.757  67.533  14.020  0.00  0.00    -0.274 OA
ATOM    108  N   VAL A   2      18.428  68.467  12.082  0.00  0.00    -0.297 N 
ATOM    109  H   VAL A   2      18.927  69.258  11.627  0.00  0.00    +0.150 HD
BRANCH 106 110
ATOM    110  CA  ILE A   1      18.714  69.730  14.141  0.00  0.00    +0.145 C 
BRANCH 110 111
ATOM    111  N   ILE A   1      17.618  70.125  15.023  0.00  0.00    -0.238 NA
ATOM    112  H   ILE A   1      17.050  69.381  15.477  0.00  0.00    +0.142 HD
ENDBRANCH 110 111
BRANCH 110 113
ATOM    113  CB  ILE A   1      19.984  69.406  14.925  0.00  0.00    +0.038 C 
BRANCH 113 114
ATOM    114  CG  ILE A   1      20.551  70.569  15.709  0.00  0.00    +0.116 C 
BRANCH 114 115
ATOM    115  CD  ILE A   1      22.016  70.369  16.015  0.00  0.00    +0.365 C 
ATOM    116  OE2 ILE A   1      22.361  69.409  16.745  0.00  0.00    -0.246 OA
ATOM    117  OE1 ILE A   1      22.831  71.170  15.507  0.00  0.00    -0.246 OA
ENDBRANCH 114 115
ENDBRANCH 113 114
ENDBRANCH 110 113
ENDBRANCH 106 110
ENDBRANCH 105 108
BRANCH 105 118
ATOM    118  CB  VAL A   2      16.392  67.346  11.298  0.00  0.00    +0.143 C 
BRANCH 118 119
ATOM    119  CG  VAL A   2      15.774  66.010  10.827  0.00  0.00    +0.367 C 
ATOM    120  OD2 VAL A   2      14.519  65.964  10.788  0.00  0.00    -0.246 OA
ATOM    121  OD1 VAL A   2      16.516  65.059  10.473  0.00  0.00    -0.246 OA
ENDBRANCH 118 119
ENDBRANCH 105 118
ENDBRANCH 101 105
ENDBRANCH  99 103
ENDBRANCH  95  99
ENDBRANCH  94  97
BRANCH  94 122
ATOM    122  C   TRP A   4      15.822  68.433   3.765  0.00  0.00    +0.242 C 
ATOM    123  O   TRP A   4      16.735  67.831   3.167  0.00  0.00    -0.273 OA
ATOM    124  N   GLN A   5      14.770  68.972   3.147  0.00  0.00    -0.297 N 
ATOM    125  H   GLN A   5      14.037  69.445   3.713  0.00  0.00    +0.150 HD
BRANCH 124 126
ATOM    126  CA  GLN A   5      14.622  68.915   1.694  0.00  0.00    +0.149 C 
BRANCH 126 127
ATOM    127  C   GLN A   5      15.914  69.320   0.983  0.00  0.00    +0.241 C 
ATOM    128  O   GLN A   5      16.466  70.399   1.243  0.00  0.00    -0.273 OA
ATOM    129  N   GLY A   6      16.369  68.473   0.061  0.00  0.00    -0.295 N 
ATOM    130  H   GLY A   6      15.836  67.604  -0.143  0.00  0.00    +0.150 HD
BRANCH 129 131
ATOM    131  CA  GLY A   6      17.603  68.745  -0.667  0.00  0.00    +0.176 C 
BRANCH 131 132
ATOM    132  C   GLY A   6      18.759  67.882  -0.181  0.00  0.00    +0.243 C 
ATOM    133  N   ASP A   7      18.648  67.369   1.051  0.00  0.00    -0.296 N 
ATOM    134  H   ASP A   7      17.799  67.576   1.615  0.00  0.00    +0.150 HD
ATOM    135  O   GLY A   6      19.747  67.694  -0.896  0.00  0.00    -0.273 OA
BRANCH 133 136
ATOM    136  CA  ASP A   7      19.704  66.519   1.621  0.00  0.00    +0.160 C 
BRANCH 136 137
ATOM    137  C   ASP A   7      19.537  65.061   1.233  0.00  0.00    +0.241 C 
ATOM    138  O   ASP A   7      20.495  64.283   1.292  0.00  0.00    -0.273 OA
ATOM    139  N   SER A   8      18.333  64.709   0.780  0.00  0.00    -0.295 N 
ATOM    140  H   SER A   8      17.577  65.423   0.744  0.00  0.00    +0.150 HD
BRANCH 139 141
ATOM    141  CA  SER A   8      18.046  63.344   0.331  0.00  0.00    +0.178 C 
BRANCH 141 142
ATOM    142  C   SER A   8      19.119  62.750  -0.568  0.00  0.00    +0.243 C 
ATOM    143  N   GLY A   9      19.392  61.465  -0.384  0.00  0.00    -0.295 N 
ATOM    144  H   GLY A   9      18.926  60.927   0.374  0.00  0.00    +0.150 HD
ATOM    145  O   SER A   8      19.701  63.445  -1.421  0.00  0.00    -0.273 OA
BRANCH 143 146
ATOM    146  CA  GLY A   9      20.364  60.820  -1.270  0.00  0.00    +0.176 C 
BRANCH 146 147
ATOM    147  C   GLY A   9      21.795  60.914  -0.748  0.00  0.00    +0.243 C 
ATOM    148  N   GLY A  10      22.042  61.873   0.156  0.00  0.00    -0.296 N 
ATOM    149  H   GLY A  10      21.247  62.442   0.512  0.00  0.00    +0.150 HD
ATOM    150  O   GLY A   9      22.650  60.159  -1.151  0.00  0.00    -0.273 OA
BRANCH 148 151
ATOM    151  CA  GLY A  10      23.386  62.150   0.661  0.00  0.00    +0.163 C 
BRANCH 151 152
ATOM    152  C   GLY A  10      23.884  61.165   1.717  0.00  0.00    +0.229 C 
ATOM    153  O   GLY A  10      23.184  60.221   2.103  0.00  0.00    -0.286 OA
ENDBRANCH 151 152
ENDBRANCH 148 151
ENDBRANCH 146 147
ENDBRANCH 143 146
ENDBRANCH 141 142
BRANCH 141 154
ATOM    154  CB  SER A   8      16.718  63.280  -0.414  0.00  0.00    +0.166 C 
BRANCH 154 155
ATOM    155  OG  SER A   8      15.654  63.146   0.512  0.00  0.00    -0.380 OA
ATOM    156  H   SER A   8      15.650  63.925   1.123  0.00  0.00    +0.211 HD
ENDBRANCH 154 155
ENDBRANCH 141 154
ENDBRANCH 139 141
ENDBRANCH 136 137
BRANCH 136 157
ATOM    157  CB  ASP A   7      19.718  66.588   3.150  0.00  0.00    +0.143 C 
BRANCH 157 158
ATOM    158  CG  ASP A   7      20.209  67.920   3.675  0.00  0.00    +0.367 C 
ATOM    159  OD2 ASP A   7      19.625  68.422   4.661  0.00  0.00    -0.246 OA
ATOM    160  OD1 ASP A   7      21.167  68.453   3.084  0.00  0.00    -0.246 OA
ENDBRANCH 157 158
ENDBRANCH 136 157
ENDBRANCH 133 136
ENDBRANCH 131 132
ENDBRANCH 129 131
ENDBRANCH 126 127
BRANCH 126 161
ATOM    161  CB  GLN A   5      13.518  69.861   1.228  0.00  0.00    +0.039 C 
BRANCH 161 162
ATOM    162  CG  GLN A   5      13.291  69.751  -0.274  0.00  0.00    +0.087 C 
BRANCH 162 163
ATOM    163  CD  GLN A   5      12.698  68.406  -0.636  0.00  0.00    +0.219 C 
ATOM    164  NE2 GLN A   5      11.453  68.185  -0.235  0.00  0.00    -0.329 N 
ATOM    165 HE21 GLN A   5      10.933  68.925   0.279  0.00  0.00    +0.145 HD
ATOM    166 HE22 GLN A   5      10.997  67.272  -0.435  0.00  0.00    +0.145 HD
ATOM    167  OE1 GLN A   5      13.362  67.559  -1.252  0.00  0.00    -0.275 OA
ENDBRANCH 162 163
ENDBRANCH 161 162
ENDBRANCH 126 161
ENDBRANCH 124 126
ENDBRANCH  94 122
ENDBRANCH  93  94
ENDBRANCH  92  93
ENDBRANCH  91  92
ENDBRANCH  90  91
ENDBRANCH   1  90
TORSDOF 71
REMARK  Name = ../refined-set-2016/2vwn/2vwn_pocket.pdb
REMARK  226 active torsions:
REMARK  status: ('A' for Active; 'I' for Inactive)
REMARK    1  A    between atoms: _1  and  _5
REMARK    2  A    between atoms: _5  and  _6
REMARK    3  A    between atoms: _5  and  _8
REMARK    4  A    between atoms: _8  and  _9
REMARK    5  A    between atoms: _12  and  _14
REMARK    6  A    between atoms: _14  and  _15
REMARK    7  A    between atoms: _14  and  _17
REMARK    8  A    between atoms: _20  and  _22
REMARK    9  A    between atoms: _22  and  _23
REMARK   10  A    between atoms: _22  and  _25
REMARK   11  A    between atoms: _25  and  _26
REMARK   12  A    between atoms: _31  and  _33
REMARK   13  A    between atoms: _33  and  _34
REMARK   14  A    between atoms: _33  and  _36
REMARK   15  A    between atoms: _36  and  _37
REMARK   16  A    between atoms: _37  and  _38
REMARK   17  A    between atoms: _43  and  _45
REMARK   18  A    between atoms: _45  and  _46
REMARK   19  A    between atoms: _45  and  _48
REMARK   20  A    between atoms: _48  and  _49
REMARK   21  A    between atoms: _52  and  _54
REMARK   22  A    between atoms: _54  and  _55
REMARK   23  A    between atoms: _54  and  _57
REMARK   24  A    between atoms: _57  and  _58
REMARK   25  A    between atoms: _58  and  _59
REMARK   26  A    between atoms: _59  and  _60
REMARK   27  A    between atoms: _60  and  _61
REMARK   28  A    between atoms: _65  and  _67
REMARK   29  A    between atoms: _67  and  _68
REMARK   30  A    between atoms: _67  and  _70
REMARK   31  A    between atoms: _70  and  _71
REMARK   32  A    between atoms: _71  and  _72
REMARK   33  A    between atoms: _75  and  _77
REMARK   34  A    between atoms: _77  and  _78
REMARK   35  A    between atoms: _77  and  _80
REMARK   36  A    between atoms: _80  and  _81
REMARK   37  A    between atoms: _84  and  _86
REMARK   38  A    between atoms: _86  and  _87
REMARK   39  A    between atoms: _86  and  _89
REMARK   40  A    between atoms: _89  and  _90
REMARK   41  A    between atoms: _95  and  _96
REMARK   42  A    between atoms: _98  and  _100
REMARK   43  A    between atoms: _100  and  _101
REMARK   44  A    between atoms: _100  and  _103
REMARK   45  A    between atoms: _103  and  _104
REMARK   46  A    between atoms: _107  and  _109
REMARK   47  A    between atoms: _109  and  _110
REMARK   48  A    between atoms: _109  and  _112
REMARK   49  A    between atoms: _112  and  _113
REMARK   50  A    between atoms: _116  and  _118
REMARK   51  A    between atoms: _118  and  _119
REMARK   52  A    between atoms: _118  and  _121
REMARK   53  A    between atoms: _124  and  _126
REMARK   54  A    between atoms: _126  and  _127
REMARK   55  A    between atoms: _126  and  _129
REMARK   56  A    between atoms: _129  and  _130
REMARK   57  A    between atoms: _130  and  _131
REMARK   58  A    between atoms: _131  and  _132
REMARK   59  A    between atoms: _141  and  _143
REMARK   60  A    between atoms: _143  and  _144
REMARK   61  A    between atoms: _143  and  _146
REMARK   62  A    between atoms: _146  and  _147
REMARK   63  A    between atoms: _152  and  _154
REMARK   64  A    between atoms: _154  and  _155
REMARK   65  A    between atoms: _154  and  _157
REMARK   66  A    between atoms: _157  and  _158
REMARK   67  A    between atoms: _158  and  _159
REMARK   68  A    between atoms: _162  and  _164
REMARK   69  A    between atoms: _164  and  _165
REMARK   70  A    between atoms: _164  and  _167
REMARK   71  A    between atoms: _167  and  _168
REMARK   72  A    between atoms: _168  and  _169
REMARK   73  A    between atoms: _169  and  _170
REMARK   74  A    between atoms: _170  and  _171
REMARK   75  A    between atoms: _175  and  _177
REMARK   76  A    between atoms: _177  and  _178
REMARK   77  A    between atoms: _180  and  _182
REMARK   78  A    between atoms: _182  and  _183
REMARK   79  A    between atoms: _182  and  _185
REMARK   80  A    between atoms: _185  and  _186
REMARK   81  A    between atoms: _186  and  _187
REMARK   82  A    between atoms: _192  and  _194
REMARK   83  A    between atoms: _194  and  _195
REMARK   84  A    between atoms: _194  and  _197
REMARK   85  A    between atoms: _200  and  _202
REMARK   86  A    between atoms: _202  and  _203
REMARK   87  A    between atoms: _202  and  _205
REMARK   88  A    between atoms: _205  and  _206
REMARK   89  A    between atoms: _208  and  _210
REMARK   90  A    between atoms: _210  and  _211
REMARK   91  A    between atoms: _210  and  _213
REMARK   92  A    between atoms: _213  and  _214
REMARK   93  A    between atoms: _216  and  _218
REMARK   94  A    between atoms: _218  and  _219
REMARK   95  A    between atoms: _218  and  _221
REMARK   96  A    between atoms: _221  and  _222
REMARK   97  A    between atoms: _228  and  _230
REMARK   98  A    between atoms: _230  and  _231
REMARK   99  A    between atoms: _230  and  _233
REMARK  100  A    between atoms: _233  and  _234
REMARK  101  A    between atoms: _237  and  _239
REMARK  102  A    between atoms: _239  and  _240
REMARK  103  A    between atoms: _239  and  _242
REMARK  104  A    between atoms: _242  and  _243
REMARK  105  A    between atoms: _246  and  _248
REMARK  106  A    between atoms: _248  and  _249
REMARK  107  A    between atoms: _248  and  _251
REMARK  108  A    between atoms: _251  and  _252
REMARK  109  A    between atoms: _255  and  _257
REMARK  110  A    between atoms: _257  and  _258
REMARK  111  A    between atoms: _257  and  _260
REMARK  112  A    between atoms: _260  and  _261
REMARK  113  A    between atoms: _261  and  _262
REMARK  114  A    between atoms: _264  and  _266
REMARK  115  A    between atoms: _266  and  _267
REMARK  116  A    between atoms: _266  and  _269
REMARK  117  A    between atoms: _269  and  _270
REMARK  118  A    between atoms: _276  and  _278
REMARK  119  A    between atoms: _278  and  _279
REMARK  120  A    between atoms: _278  and  _281
REMARK  121  A    between atoms: _283  and  _285
REMARK  122  A    between atoms: _285  and  _286
REMARK  123  A    between atoms: _289  and  _291
REMARK  124  A    between atoms: _291  and  _292
REMARK  125  A    between atoms: _294  and  _296
REMARK  126  A    between atoms: _296  and  _297
REMARK  127  A    between atoms: _296  and  _299
REMARK  128  A    between atoms: _299  and  _300
REMARK  129  A    between atoms: _300  and  _301
REMARK  130  A    between atoms: _304  and  _306
REMARK  131  A    between atoms: _306  and  _307
REMARK  132  A    between atoms: _306  and  _309
REMARK  133  A    between atoms: _309  and  _310
REMARK  134  A    between atoms: _313  and  _315
REMARK  135  A    between atoms: _315  and  _316
REMARK  136  A    between atoms: _319  and  _321
REMARK  137  A    between atoms: _321  and  _322
REMARK  138  A    between atoms: _321  and  _324
REMARK  139  A    between atoms: _324  and  _325
REMARK  140  A    between atoms: _325  and  _448
REMARK  141  A    between atoms: _326  and  _328
REMARK  142  A    between atoms: _328  and  _329
REMARK  143  A    between atoms: _328  and  _331
REMARK  144  A    between atoms: _331  and  _332
REMARK  145  A    between atoms: _332  and  _333
REMARK  146  A    between atoms: _338  and  _340
REMARK  147  A    between atoms: _340  and  _341
REMARK  148  A    between atoms: _343  and  _345
REMARK  149  A    between atoms: _345  and  _346
REMARK  150  A    between atoms: _345  and  _348
REMARK  151  A    between atoms: _348  and  _349
REMARK  152  A    between atoms: _352  and  _354
REMARK  153  A    between atoms: _354  and  _355
REMARK  154  A    between atoms: _354  and  _357
REMARK  155  A    between atoms: _357  and  _358
REMARK  156  A    between atoms: _360  and  _362
REMARK  157  A    between atoms: _362  and  _363
REMARK  158  A    between atoms: _365  and  _367
REMARK  159  A    between atoms: _367  and  _368
REMARK  160  A    between atoms: _370  and  _372
REMARK  161  A    between atoms: _372  and  _373
REMARK  162  A    between atoms: _372  and  _375
REMARK  163  A    between atoms: _375  and  _376
REMARK  164  A    between atoms: _381  and  _383
REMARK  165  A    between atoms: _383  and  _384
REMARK  166  A    between atoms: _383  and  _386
REMARK  167  A    between atoms: _386  and  _387
REMARK  168  A    between atoms: _390  and  _392
REMARK  169  A    between atoms: _392  and  _393
REMARK  170  A    between atoms: _392  and  _395
REMARK  171  A    between atoms: _398  and  _400
REMARK  172  A    between atoms: _400  and  _401
REMARK  173  A    between atoms: _400  and  _403
REMARK  174  A    between atoms: _403  and  _404
REMARK  175  A    between atoms: _406  and  _408
REMARK  176  A    between atoms: _408  and  _409
REMARK  177  A    between atoms: _408  and  _411
REMARK  178  A    between atoms: _411  and  _412
REMARK  179  A    between atoms: _422  and  _424
REMARK  180  A    between atoms: _424  and  _425
REMARK  181  A    between atoms: _427  and  _429
REMARK  182  A    between atoms: _429  and  _430
REMARK  183  A    between atoms: _429  and  _432
REMARK  184  A    between atoms: _432  and  _433
REMARK  185  A    between atoms: _433  and  _434
REMARK  186  A    between atoms: _437  and  _439
REMARK  187  A    between atoms: _439  and  _440
REMARK  188  A    between atoms: _442  and  _444
REMARK  189  A    between atoms: _444  and  _445
REMARK  190  A    between atoms: _444  and  _447
REMARK  191  A    between atoms: _447  and  _448
REMARK  192  A    between atoms: _449  and  _451
REMARK  193  A    between atoms: _451  and  _452
REMARK  194  A    between atoms: _455  and  _457
REMARK  195  A    between atoms: _457  and  _458
REMARK  196  A    between atoms: _457  and  _460
REMARK  197  A    between atoms: _460  and  _461
REMARK  198  A    between atoms: _461  and  _462
REMARK  199  A    between atoms: _462  and  _463
REMARK  200  A    between atoms: _472  and  _474
REMARK  201  A    between atoms: _474  and  _475
REMARK  202  A    between atoms: _474  and  _477
REMARK  203  A    between atoms: _477  and  _478
REMARK  204  A    between atoms: _478  and  _479
REMARK  205  A    between atoms: _479  and  _480
REMARK  206  A    between atoms: _480  and  _481
REMARK  207  A    between atoms: _485  and  _487
REMARK  208  A    between atoms: _487  and  _488
REMARK  209  A    between atoms: _487  and  _490
REMARK  210  A    between atoms: _490  and  _491
REMARK  211  A    between atoms: _496  and  _497
REMARK  212  A    between atoms: _499  and  _501
REMARK  213  A    between atoms: _501  and  _502
REMARK  214  A    between atoms: _504  and  _506
REMARK  215  A    between atoms: _506  and  _507
REMARK  216  A    between atoms: _506  and  _509
REMARK  217  A    between atoms: _509  and  _510
REMARK  218  A    between atoms: _513  and  _515
REMARK  219  A    between atoms: _515  and  _516
REMARK  220  A    between atoms: _515  and  _518
REMARK  221  A    between atoms: _518  and  _519
REMARK  222  A    between atoms: _524  and  _525
REMARK  223  A    between atoms: _527  and  _529
REMARK  224  A    between atoms: _529  and  _530
REMARK  225  A    between atoms: _529  and  _532
REMARK  226  A    between atoms: _532  and  _533
REMARK                            x       y       z     vdW  Elec       q    Type
REMARK                         _______ _______ _______ _____ _____    ______ ____
ROOT
ATOM      1  CB  HIS A   1      23.971  58.482   7.039  0.00  0.00    +0.072 C 
ENDROOT
BRANCH   1   2
ATOM      2  CG  HIS A   1      23.958  58.196   8.510  0.00  0.00    +0.082 A 
ATOM      3  CD2 HIS A   1      23.349  58.828   9.545  0.00  0.00    +0.115 A 
ATOM      4  NE2 HIS A   1      23.683  58.137  10.691  0.00  0.00    -0.221 NA
ATOM      5  CE1 HIS A   1      24.447  57.112  10.363  0.00  0.00    +0.199 A 
ATOM      6  ND1 HIS A   1      24.643  57.134   9.057  0.00  0.00    -0.227 NA
ENDBRANCH   1   2
BRANCH   1   7
ATOM      7  CA  HIS A   1      25.235  59.197   6.578  0.00  0.00    +0.139 C 
BRANCH   7   8
ATOM      8  N   HIS A   1      25.229  59.343   5.144  0.00  0.00    -0.239 NA
ATOM      9  H   HIS A   1      25.148  58.486   4.560  0.00  0.00    +0.142 HD
ENDBRANCH   7   8
BRANCH   7  10
ATOM     10  C   HIS A   1      26.430  58.264   6.780  0.00  0.00    +0.224 C 
ATOM     11  O   HIS A   1      26.453  57.139   6.252  0.00  0.00    -0.287 OA
ENDBRANCH   7  10
ENDBRANCH   1   7
TORSDOF 4
REMARK  Name = ../refined-set-2016/2vwn/2vwn_pocket.pdb
REMARK  226 active torsions:
REMARK  status: ('A' for Active; 'I' for Inactive)
REMARK    1  A    between atoms: _1  and  _5
REMARK    2  A    between atoms: _5  and  _6
REMARK    3  A    between atoms: _5  and  _8
REMARK    4  A    between atoms: _8  and  _9
REMARK    5  A    between atoms: _12  and  _14
REMARK    6  A    between atoms: _14  and  _15
REMARK    7  A    between atoms: _14  and  _17
REMARK    8  A    between atoms: _20  and  _22
REMARK    9  A    between atoms: _22  and  _23
REMARK   10  A    between atoms: _22  and  _25
REMARK   11  A    between atoms: _25  and  _26
REMARK   12  A    between atoms: _31  and  _33
REMARK   13  A    between atoms: _33  and  _34
REMARK   14  A    between atoms: _33  and  _36
REMARK   15  A    between atoms: _36  and  _37
REMARK   16  A    between atoms: _37  and  _38
REMARK   17  A    between atoms: _43  and  _45
REMARK   18  A    between atoms: _45  and  _46
REMARK   19  A    between atoms: _45  and  _48
REMARK   20  A    between atoms: _48  and  _49
REMARK   21  A    between atoms: _52  and  _54
REMARK   22  A    between atoms: _54  and  _55
REMARK   23  A    between atoms: _54  and  _57
REMARK   24  A    between atoms: _57  and  _58
REMARK   25  A    between atoms: _58  and  _59
REMARK   26  A    between atoms: _59  and  _60
REMARK   27  A    between atoms: _60  and  _61
REMARK   28  A    between atoms: _65  and  _67
REMARK   29  A    between atoms: _67  and  _68
REMARK   30  A    between atoms: _67  and  _70
REMARK   31  A    between atoms: _70  and  _71
REMARK   32  A    between atoms: _71  and  _72
REMARK   33  A    between atoms: _75  and  _77
REMARK   34  A    between atoms: _77  and  _78
REMARK   35  A    between atoms: _77  and  _80
REMARK   36  A    between atoms: _80  and  _81
REMARK   37  A    between atoms: _84  and  _86
REMARK   38  A    between atoms: _86  and  _87
REMARK   39  A    between atoms: _86  and  _89
REMARK   40  A    between atoms: _89  and  _90
REMARK   41  A    between atoms: _95  and  _96
REMARK   42  A    between atoms: _98  and  _100
REMARK   43  A    between atoms: _100  and  _101
REMARK   44  A    between atoms: _100  and  _103
REMARK   45  A    between atoms: _103  and  _104
REMARK   46  A    between atoms: _107  and  _109
REMARK   47  A    between atoms: _109  and  _110
REMARK   48  A    between atoms: _109  and  _112
REMARK   49  A    between atoms: _112  and  _113
REMARK   50  A    between atoms: _116  and  _118
REMARK   51  A    between atoms: _118  and  _119
REMARK   52  A    between atoms: _118  and  _121
REMARK   53  A    between atoms: _124  and  _126
REMARK   54  A    between atoms: _126  and  _127
REMARK   55  A    between atoms: _126  and  _129
REMARK   56  A    between atoms: _129  and  _130
REMARK   57  A    between atoms: _130  and  _131
REMARK   58  A    between atoms: _131  and  _132
REMARK   59  A    between atoms: _141  and  _143
REMARK   60  A    between atoms: _143  and  _144
REMARK   61  A    between atoms: _143  and  _146
REMARK   62  A    between atoms: _146  and  _147
REMARK   63  A    between atoms: _152  and  _154
REMARK   64  A    between atoms: _154  and  _155
REMARK   65  A    between atoms: _154  and  _157
REMARK   66  A    between atoms: _157  and  _158
REMARK   67  A    between atoms: _158  and  _159
REMARK   68  A    between atoms: _162  and  _164
REMARK   69  A    between atoms: _164  and  _165
REMARK   70  A    between atoms: _164  and  _167
REMARK   71  A    between atoms: _167  and  _168
REMARK   72  A    between atoms: _168  and  _169
REMARK   73  A    between atoms: _169  and  _170
REMARK   74  A    between atoms: _170  and  _171
REMARK   75  A    between atoms: _175  and  _177
REMARK   76  A    between atoms: _177  and  _178
REMARK   77  A    between atoms: _180  and  _182
REMARK   78  A    between atoms: _182  and  _183
REMARK   79  A    between atoms: _182  and  _185
REMARK   80  A    between atoms: _185  and  _186
REMARK   81  A    between atoms: _186  and  _187
REMARK   82  A    between atoms: _192  and  _194
REMARK   83  A    between atoms: _194  and  _195
REMARK   84  A    between atoms: _194  and  _197
REMARK   85  A    between atoms: _200  and  _202
REMARK   86  A    between atoms: _202  and  _203
REMARK   87  A    between atoms: _202  and  _205
REMARK   88  A    between atoms: _205  and  _206
REMARK   89  A    between atoms: _208  and  _210
REMARK   90  A    between atoms: _210  and  _211
REMARK   91  A    between atoms: _210  and  _213
REMARK   92  A    between atoms: _213  and  _214
REMARK   93  A    between atoms: _216  and  _218
REMARK   94  A    between atoms: _218  and  _219
REMARK   95  A    between atoms: _218  and  _221
REMARK   96  A    between atoms: _221  and  _222
REMARK   97  A    between atoms: _228  and  _230
REMARK   98  A    between atoms: _230  and  _231
REMARK   99  A    between atoms: _230  and  _233
REMARK  100  A    between atoms: _233  and  _234
REMARK  101  A    between atoms: _237  and  _239
REMARK  102  A    between atoms: _239  and  _240
REMARK  103  A    between atoms: _239  and  _242
REMARK  104  A    between atoms: _242  and  _243
REMARK  105  A    between atoms: _246  and  _248
REMARK  106  A    between atoms: _248  and  _249
REMARK  107  A    between atoms: _248  and  _251
REMARK  108  A    between atoms: _251  and  _252
REMARK  109  A    between atoms: _255  and  _257
REMARK  110  A    between atoms: _257  and  _258
REMARK  111  A    between atoms: _257  and  _260
REMARK  112  A    between atoms: _260  and  _261
REMARK  113  A    between atoms: _261  and  _262
REMARK  114  A    between atoms: _264  and  _266
REMARK  115  A    between atoms: _266  and  _267
REMARK  116  A    between atoms: _266  and  _269
REMARK  117  A    between atoms: _269  and  _270
REMARK  118  A    between atoms: _276  and  _278
REMARK  119  A    between atoms: _278  and  _279
REMARK  120  A    between atoms: _278  and  _281
REMARK  121  A    between atoms: _283  and  _285
REMARK  122  A    between atoms: _285  and  _286
REMARK  123  A    between atoms: _289  and  _291
REMARK  124  A    between atoms: _291  and  _292
REMARK  125  A    between atoms: _294  and  _296
REMARK  126  A    between atoms: _296  and  _297
REMARK  127  A    between atoms: _296  and  _299
REMARK  128  A    between atoms: _299  and  _300
REMARK  129  A    between atoms: _300  and  _301
REMARK  130  A    between atoms: _304  and  _306
REMARK  131  A    between atoms: _306  and  _307
REMARK  132  A    between atoms: _306  and  _309
REMARK  133  A    between atoms: _309  and  _310
REMARK  134  A    between atoms: _313  and  _315
REMARK  135  A    between atoms: _315  and  _316
REMARK  136  A    between atoms: _319  and  _321
REMARK  137  A    between atoms: _321  and  _322
REMARK  138  A    between atoms: _321  and  _324
REMARK  139  A    between atoms: _324  and  _325
REMARK  140  A    between atoms: _325  and  _448
REMARK  141  A    between atoms: _326  and  _328
REMARK  142  A    between atoms: _328  and  _329
REMARK  143  A    between atoms: _328  and  _331
REMARK  144  A    between atoms: _331  and  _332
REMARK  145  A    between atoms: _332  and  _333
REMARK  146  A    between atoms: _338  and  _340
REMARK  147  A    between atoms: _340  and  _341
REMARK  148  A    between atoms: _343  and  _345
REMARK  149  A    between atoms: _345  and  _346
REMARK  150  A    between atoms: _345  and  _348
REMARK  151  A    between atoms: _348  and  _349
REMARK  152  A    between atoms: _352  and  _354
REMARK  153  A    between atoms: _354  and  _355
REMARK  154  A    between atoms: _354  and  _357
REMARK  155  A    between atoms: _357  and  _358
REMARK  156  A    between atoms: _360  and  _362
REMARK  157  A    between atoms: _362  and  _363
REMARK  158  A    between atoms: _365  and  _367
REMARK  159  A    between atoms: _367  and  _368
REMARK  160  A    between atoms: _370  and  _372
REMARK  161  A    between atoms: _372  and  _373
REMARK  162  A    between atoms: _372  and  _375
REMARK  163  A    between atoms: _375  and  _376
REMARK  164  A    between atoms: _381  and  _383
REMARK  165  A    between atoms: _383  and  _384
REMARK  166  A    between atoms: _383  and  _386
REMARK  167  A    between atoms: _386  and  _387
REMARK  168  A    between atoms: _390  and  _392
REMARK  169  A    between atoms: _392  and  _393
REMARK  170  A    between atoms: _392  and  _395
REMARK  171  A    between atoms: _398  and  _400
REMARK  172  A    between atoms: _400  and  _401
REMARK  173  A    between atoms: _400  and  _403
REMARK  174  A    between atoms: _403  and  _404
REMARK  175  A    between atoms: _406  and  _408
REMARK  176  A    between atoms: _408  and  _409
REMARK  177  A    between atoms: _408  and  _411
REMARK  178  A    between atoms: _411  and  _412
REMARK  179  A    between atoms: _422  and  _424
REMARK  180  A    between atoms: _424  and  _425
REMARK  181  A    between atoms: _427  and  _429
REMARK  182  A    between atoms: _429  and  _430
REMARK  183  A    between atoms: _429  and  _432
REMARK  184  A    between atoms: _432  and  _433
REMARK  185  A    between atoms: _433  and  _434
REMARK  186  A    between atoms: _437  and  _439
REMARK  187  A    between atoms: _439  and  _440
REMARK  188  A    between atoms: _442  and  _444
REMARK  189  A    between atoms: _444  and  _445
REMARK  190  A    between atoms: _444  and  _447
REMARK  191  A    between atoms: _447  and  _448
REMARK  192  A    between atoms: _449  and  _451
REMARK  193  A    between atoms: _451  and  _452
REMARK  194  A    between atoms: _455  and  _457
REMARK  195  A    between atoms: _457  and  _458
REMARK  196  A    between atoms: _457  and  _460
REMARK  197  A    between atoms: _460  and  _461
REMARK  198  A    between atoms: _461  and  _462
REMARK  199  A    between atoms: _462  and  _463
REMARK  200  A    between atoms: _472  and  _474
REMARK  201  A    between atoms: _474  and  _475
REMARK  202  A    between atoms: _474  and  _477
REMARK  203  A    between atoms: _477  and  _478
REMARK  204  A    between atoms: _478  and  _479
REMARK  205  A    between atoms: _479  and  _480
REMARK  206  A    between atoms: _480  and  _481
REMARK  207  A    between atoms: _485  and  _487
REMARK  208  A    between atoms: _487  and  _488
REMARK  209  A    between atoms: _487  and  _490
REMARK  210  A    between atoms: _490  and  _491
REMARK  211  A    between atoms: _496  and  _497
REMARK  212  A    between atoms: _499  and  _501
REMARK  213  A    between atoms: _501  and  _502
REMARK  214  A    between atoms: _504  and  _506
REMARK  215  A    between atoms: _506  and  _507
REMARK  216  A    between atoms: _506  and  _509
REMARK  217  A    between atoms: _509  and  _510
REMARK  218  A    between atoms: _513  and  _515
REMARK  219  A    between atoms: _515  and  _516
REMARK  220  A    between atoms: _515  and  _518
REMARK  221  A    between atoms: _518  and  _519
REMARK  222  A    between atoms: _524  and  _525
REMARK  223  A    between atoms: _527  and  _529
REMARK  224  A    between atoms: _529  and  _530
REMARK  225  A    between atoms: _529  and  _532
REMARK  226  A    between atoms: _532  and  _533
REMARK                            x       y       z     vdW  Elec       q    Type
REMARK                         _______ _______ _______ _____ _____    ______ ____
ROOT
ATOM      1  C   GLY A   3      15.245  59.934   9.980  0.00  0.00    +0.243 C 
ATOM      2  O   GLY A   3      15.703  59.110  10.792  0.00  0.00    -0.273 OA
ATOM      3  N   ILE A   4      14.830  59.578   8.759  0.00  0.00    -0.297 N 
ATOM      4  H   ILE A   4      14.512  60.313   8.096  0.00  0.00    +0.150 HD
ENDROOT
BRANCH   3   5
ATOM      5  CA  ILE A   4      14.814  58.208   8.345  0.00  0.00    +0.149 C 
BRANCH   5   6
ATOM      6  C   ILE A   4      15.818  58.002   7.223  0.00  0.00    +0.241 C 
ATOM      7  N   TYR A   5      16.641  56.958   7.368  0.00  0.00    -0.297 N 
ATOM      8  H   TYR A   5      16.450  56.289   8.141  0.00  0.00    +0.150 HD
ATOM      9  O   ILE A   4      15.826  58.778   6.234  0.00  0.00    -0.273 OA
BRANCH   7  10
ATOM     10  CA  TYR A   5      17.798  56.700   6.502  0.00  0.00    +0.153 C 
BRANCH  10  11
ATOM     11  C   TYR A   5      17.670  55.304   5.914  0.00  0.00    +0.241 C 
ATOM     12  O   TYR A   5      17.207  54.398   6.585  0.00  0.00    -0.273 OA
ATOM     13  N   THR A   6      18.147  55.103   4.681  0.00  0.00    -0.296 N 
ATOM     14  H   THR A   6      18.468  55.916   4.117  0.00  0.00    +0.150 HD
BRANCH  13  15
ATOM     15  CA  THR A   6      18.223  53.769   4.118  0.00  0.00    +0.164 C 
BRANCH  15  16
ATOM     16  C   THR A   6      19.357  53.077   4.847  0.00  0.00    +0.229 C 
ATOM     17  O   THR A   6      20.429  53.660   4.992  0.00  0.00    -0.286 OA
ENDBRANCH  15  16
BRANCH  15  18
ATOM     18  CB  THR A   6      18.574  53.853   2.641  0.00  0.00    +0.136 C 
ATOM     19  CG2 THR A   6      18.618  52.461   1.984  0.00  0.00    +0.034 C 
BRANCH  18  20
ATOM     20  OG1 THR A   6      17.557  54.636   2.017  0.00  0.00    -0.382 OA
ATOM     21  HG1 THR A   6      17.750  54.715   1.049  0.00  0.00    +0.210 HD
ENDBRANCH  18  20
ENDBRANCH  15  18
ENDBRANCH  13  15
ENDBRANCH  10  11
BRANCH  10  22
ATOM     22  CB  TYR A   5      19.098  56.796   7.336  0.00  0.00    +0.055 C 
BRANCH  22  23
ATOM     23  CG  TYR A   5      19.348  58.181   7.846  0.00  0.00    -0.020 A 
ATOM     24  CD2 TYR A   5      18.677  58.681   8.969  0.00  0.00    -0.001 A 
ATOM     25  CE2 TYR A   5      18.892  59.988   9.418  0.00  0.00    +0.036 A 
ATOM     26  CZ  TYR A   5      19.754  60.824   8.707  0.00  0.00    +0.134 A 
ATOM     27  CE1 TYR A   5      20.420  60.351   7.594  0.00  0.00    +0.036 A 
ATOM     28  CD1 TYR A   5      20.215  59.069   7.151  0.00  0.00    -0.001 A 
BRANCH  26  29
ATOM     29  OH  TYR A   5      19.952  62.110   9.152  0.00  0.00    -0.506 OA
ATOM     30  HH  TYR A   5      19.087  62.592   9.160  0.00  0.00    +0.292 HD
ENDBRANCH  26  29
ENDBRANCH  22  23
ENDBRANCH  10  22
ENDBRANCH   7  10
ENDBRANCH   5   6
BRANCH   5  31
ATOM     31  CB  ILE A   4      13.410  57.743   7.907  0.00  0.00    +0.027 C 
ATOM     32  CG2 ILE A   4      13.415  56.235   7.785  0.00  0.00    +0.002 C 
BRANCH  31  33
ATOM     33  CG1 ILE A   4      12.304  58.340   8.815  0.00  0.00    +0.002 C 
ATOM     34  CD1 ILE A   4      12.439  57.875  10.296  0.00  0.00    +0.000 C 
ENDBRANCH  31  33
ENDBRANCH   5  31
ENDBRANCH   3   5
BRANCH   1  35
ATOM     35  CA  GLY A   3      15.159  61.411  10.332  0.00  0.00    +0.176 C 
BRANCH  35  37
ATOM     36  C   TYR A   2      13.503  61.724  12.086  0.00  0.00    +0.241 C 
ATOM     37  N   GLY A   3      14.777  61.646  11.742  0.00  0.00    -0.295 N 
ATOM     38  H   GLY A   3      15.515  61.750  12.467  0.00  0.00    +0.150 HD
ATOM     39  O   TYR A   2      12.585  61.791  11.260  0.00  0.00    -0.273 OA
BRANCH  36  40
ATOM     40  CA  TYR A   2      13.222  61.723  13.582  0.00  0.00    +0.153 C 
BRANCH  40  43
ATOM     41  C   LYS A   1      11.394  62.995  14.568  0.00  0.00    +0.238 C 
ATOM     42  O   LYS A   1      12.136  63.840  15.077  0.00  0.00    -0.274 OA
ATOM     43  N   TYR A   2      11.825  61.955  13.856  0.00  0.00    -0.297 N 
ATOM     44  H   TYR A   2      11.125  61.282  13.482  0.00  0.00    +0.150 HD
BRANCH  41  45
ATOM     45  CA  LYS A   1       9.885  63.104  14.729  0.00  0.00    +0.145 C 
BRANCH  45  46
ATOM     46  N   LYS A   1       9.573  63.797  15.984  0.00  0.00    -0.238 NA
ATOM     47  H   LYS A   1      10.044  64.700  16.194  0.00  0.00    +0.142 HD
ENDBRANCH  45  46
BRANCH  45  48
ATOM     48  CB  LYS A   1       9.296  63.843  13.526  0.00  0.00    +0.026 C 
BRANCH  48  49
ATOM     49  CG  LYS A   1       7.777  63.886  13.526  0.00  0.00    -0.000 C 
BRANCH  49  50
ATOM     50  CD  LYS A   1       7.204  62.529  13.152  0.00  0.00    -0.024 C 
BRANCH  50  51
ATOM     51  CE  LYS A   1       5.678  62.501  13.256  0.00  0.00    -0.086 C 
BRANCH  51  52
ATOM     52  NZ  LYS A   1       5.218  62.385  14.667  0.00  0.00    +0.380 N 
ATOM     53  HZ1 LYS A   1       5.567  63.199  15.212  0.00  0.00    -0.089 HD
ATOM     54  HZ2 LYS A   1       5.589  61.505  15.080  0.00  0.00    -0.089 HD
ATOM     55  HZ3 LYS A   1       4.178  62.370  14.691  0.00  0.00    -0.089 HD
ENDBRANCH  51  52
ENDBRANCH  50  51
ENDBRANCH  49  50
ENDBRANCH  48  49
ENDBRANCH  45  48
ENDBRANCH  41  45
ENDBRANCH  40  43
BRANCH  40  56
ATOM     56  CB  TYR A   2      13.662  60.390  14.197  0.00  0.00    +0.055 C 
BRANCH  56  57
ATOM     57  CG  TYR A   2      13.385  60.355  15.694  0.00  0.00    -0.020 A 
ATOM     58  CD2 TYR A   2      14.223  60.998  16.583  0.00  0.00    -0.001 A 
ATOM     59  CE2 TYR A   2      13.969  60.961  17.951  0.00  0.00    +0.036 A 
ATOM     60  CZ  TYR A   2      12.864  60.281  18.402  0.00  0.00    +0.134 A 
ATOM     61  CE1 TYR A   2      12.029  59.636  17.530  0.00  0.00    +0.036 A 
ATOM     62  CD1 TYR A   2      12.285  59.676  16.194  0.00  0.00    -0.001 A 
BRANCH  60  63
ATOM     63  OH  TYR A   2      12.571  60.236  19.755  0.00  0.00    -0.506 OA
ATOM     64  HH  TYR A   2      11.681  60.639  19.912  0.00  0.00    +0.292 HD
ENDBRANCH  60  63
ENDBRANCH  56  57
ENDBRANCH  40  56
ENDBRANCH  36  40
ENDBRANCH  35  37
ENDBRANCH   1  35
TORSDOF 27
REMARK  Name = ../refined-set-2016/2vwn/2vwn_pocket.pdb
REMARK  226 active torsions:
REMARK  status: ('A' for Active; 'I' for Inactive)
REMARK    1  A    between atoms: _1  and  _5
REMARK    2  A    between atoms: _5  and  _6
REMARK    3  A    between atoms: _5  and  _8
REMARK    4  A    between atoms: _8  and  _9
REMARK    5  A    between atoms: _12  and  _14
REMARK    6  A    between atoms: _14  and  _15
REMARK    7  A    between atoms: _14  and  _17
REMARK    8  A    between atoms: _20  and  _22
REMARK    9  A    between atoms: _22  and  _23
REMARK   10  A    between atoms: _22  and  _25
REMARK   11  A    between atoms: _25  and  _26
REMARK   12  A    between atoms: _31  and  _33
REMARK   13  A    between atoms: _33  and  _34
REMARK   14  A    between atoms: _33  and  _36
REMARK   15  A    between atoms: _36  and  _37
REMARK   16  A    between atoms: _37  and  _38
REMARK   17  A    between atoms: _43  and  _45
REMARK   18  A    between atoms: _45  and  _46
REMARK   19  A    between atoms: _45  and  _48
REMARK   20  A    between atoms: _48  and  _49
REMARK   21  A    between atoms: _52  and  _54
REMARK   22  A    between atoms: _54  and  _55
REMARK   23  A    between atoms: _54  and  _57
REMARK   24  A    between atoms: _57  and  _58
REMARK   25  A    between atoms: _58  and  _59
REMARK   26  A    between atoms: _59  and  _60
REMARK   27  A    between atoms: _60  and  _61
REMARK   28  A    between atoms: _65  and  _67
REMARK   29  A    between atoms: _67  and  _68
REMARK   30  A    between atoms: _67  and  _70
REMARK   31  A    between atoms: _70  and  _71
REMARK   32  A    between atoms: _71  and  _72
REMARK   33  A    between atoms: _75  and  _77
REMARK   34  A    between atoms: _77  and  _78
REMARK   35  A    between atoms: _77  and  _80
REMARK   36  A    between atoms: _80  and  _81
REMARK   37  A    between atoms: _84  and  _86
REMARK   38  A    between atoms: _86  and  _87
REMARK   39  A    between atoms: _86  and  _89
REMARK   40  A    between atoms: _89  and  _90
REMARK   41  A    between atoms: _95  and  _96
REMARK   42  A    between atoms: _98  and  _100
REMARK   43  A    between atoms: _100  and  _101
REMARK   44  A    between atoms: _100  and  _103
REMARK   45  A    between atoms: _103  and  _104
REMARK   46  A    between atoms: _107  and  _109
REMARK   47  A    between atoms: _109  and  _110
REMARK   48  A    between atoms: _109  and  _112
REMARK   49  A    between atoms: _112  and  _113
REMARK   50  A    between atoms: _116  and  _118
REMARK   51  A    between atoms: _118  and  _119
REMARK   52  A    between atoms: _118  and  _121
REMARK   53  A    between atoms: _124  and  _126
REMARK   54  A    between atoms: _126  and  _127
REMARK   55  A    between atoms: _126  and  _129
REMARK   56  A    between atoms: _129  and  _130
REMARK   57  A    between atoms: _130  and  _131
REMARK   58  A    between atoms: _131  and  _132
REMARK   59  A    between atoms: _141  and  _143
REMARK   60  A    between atoms: _143  and  _144
REMARK   61  A    between atoms: _143  and  _146
REMARK   62  A    between atoms: _146  and  _147
REMARK   63  A    between atoms: _152  and  _154
REMARK   64  A    between atoms: _154  and  _155
REMARK   65  A    between atoms: _154  and  _157
REMARK   66  A    between atoms: _157  and  _158
REMARK   67  A    between atoms: _158  and  _159
REMARK   68  A    between atoms: _162  and  _164
REMARK   69  A    between atoms: _164  and  _165
REMARK   70  A    between atoms: _164  and  _167
REMARK   71  A    between atoms: _167  and  _168
REMARK   72  A    between atoms: _168  and  _169
REMARK   73  A    between atoms: _169  and  _170
REMARK   74  A    between atoms: _170  and  _171
REMARK   75  A    between atoms: _175  and  _177
REMARK   76  A    between atoms: _177  and  _178
REMARK   77  A    between atoms: _180  and  _182
REMARK   78  A    between atoms: _182  and  _183
REMARK   79  A    between atoms: _182  and  _185
REMARK   80  A    between atoms: _185  and  _186
REMARK   81  A    between atoms: _186  and  _187
REMARK   82  A    between atoms: _192  and  _194
REMARK   83  A    between atoms: _194  and  _195
REMARK   84  A    between atoms: _194  and  _197
REMARK   85  A    between atoms: _200  and  _202
REMARK   86  A    between atoms: _202  and  _203
REMARK   87  A    between atoms: _202  and  _205
REMARK   88  A    between atoms: _205  and  _206
REMARK   89  A    between atoms: _208  and  _210
REMARK   90  A    between atoms: _210  and  _211
REMARK   91  A    between atoms: _210  and  _213
REMARK   92  A    between atoms: _213  and  _214
REMARK   93  A    between atoms: _216  and  _218
REMARK   94  A    between atoms: _218  and  _219
REMARK   95  A    between atoms: _218  and  _221
REMARK   96  A    between atoms: _221  and  _222
REMARK   97  A    between atoms: _228  and  _230
REMARK   98  A    between atoms: _230  and  _231
REMARK   99  A    between atoms: _230  and  _233
REMARK  100  A    between atoms: _233  and  _234
REMARK  101  A    between atoms: _237  and  _239
REMARK  102  A    between atoms: _239  and  _240
REMARK  103  A    between atoms: _239  and  _242
REMARK  104  A    between atoms: _242  and  _243
REMARK  105  A    between atoms: _246  and  _248
REMARK  106  A    between atoms: _248  and  _249
REMARK  107  A    between atoms: _248  and  _251
REMARK  108  A    between atoms: _251  and  _252
REMARK  109  A    between atoms: _255  and  _257
REMARK  110  A    between atoms: _257  and  _258
REMARK  111  A    between atoms: _257  and  _260
REMARK  112  A    between atoms: _260  and  _261
REMARK  113  A    between atoms: _261  and  _262
REMARK  114  A    between atoms: _264  and  _266
REMARK  115  A    between atoms: _266  and  _267
REMARK  116  A    between atoms: _266  and  _269
REMARK  117  A    between atoms: _269  and  _270
REMARK  118  A    between atoms: _276  and  _278
REMARK  119  A    between atoms: _278  and  _279
REMARK  120  A    between atoms: _278  and  _281
REMARK  121  A    between atoms: _283  and  _285
REMARK  122  A    between atoms: _285  and  _286
REMARK  123  A    between atoms: _289  and  _291
REMARK  124  A    between atoms: _291  and  _292
REMARK  125  A    between atoms: _294  and  _296
REMARK  126  A    between atoms: _296  and  _297
REMARK  127  A    between atoms: _296  and  _299
REMARK  128  A    between atoms: _299  and  _300
REMARK  129  A    between atoms: _300  and  _301
REMARK  130  A    between atoms: _304  and  _306
REMARK  131  A    between atoms: _306  and  _307
REMARK  132  A    between atoms: _306  and  _309
REMARK  133  A    between atoms: _309  and  _310
REMARK  134  A    between atoms: _313  and  _315
REMARK  135  A    between atoms: _315  and  _316
REMARK  136  A    between atoms: _319  and  _321
REMARK  137  A    between atoms: _321  and  _322
REMARK  138  A    between atoms: _321  and  _324
REMARK  139  A    between atoms: _324  and  _325
REMARK  140  A    between atoms: _325  and  _448
REMARK  141  A    between atoms: _326  and  _328
REMARK  142  A    between atoms: _328  and  _329
REMARK  143  A    between atoms: _328  and  _331
REMARK  144  A    between atoms: _331  and  _332
REMARK  145  A    between atoms: _332  and  _333
REMARK  146  A    between atoms: _338  and  _340
REMARK  147  A    between atoms: _340  and  _341
REMARK  148  A    between atoms: _343  and  _345
REMARK  149  A    between atoms: _345  and  _346
REMARK  150  A    between atoms: _345  and  _348
REMARK  151  A    between atoms: _348  and  _349
REMARK  152  A    between atoms: _352  and  _354
REMARK  153  A    between atoms: _354  and  _355
REMARK  154  A    between atoms: _354  and  _357
REMARK  155  A    between atoms: _357  and  _358
REMARK  156  A    between atoms: _360  and  _362
REMARK  157  A    between atoms: _362  and  _363
REMARK  158  A    between atoms: _365  and  _367
REMARK  159  A    between atoms: _367  and  _368
REMARK  160  A    between atoms: _370  and  _372
REMARK  161  A    between atoms: _372  and  _373
REMARK  162  A    between atoms: _372  and  _375
REMARK  163  A    between atoms: _375  and  _376
REMARK  164  A    between atoms: _381  and  _383
REMARK  165  A    between atoms: _383  and  _384
REMARK  166  A    between atoms: _383  and  _386
REMARK  167  A    between atoms: _386  and  _387
REMARK  168  A    between atoms: _390  and  _392
REMARK  169  A    between atoms: _392  and  _393
REMARK  170  A    between atoms: _392  and  _395
REMARK  171  A    between atoms: _398  and  _400
REMARK  172  A    between atoms: _400  and  _401
REMARK  173  A    between atoms: _400  and  _403
REMARK  174  A    between atoms: _403  and  _404
REMARK  175  A    between atoms: _406  and  _408
REMARK  176  A    between atoms: _408  and  _409
REMARK  177  A    between atoms: _408  and  _411
REMARK  178  A    between atoms: _411  and  _412
REMARK  179  A    between atoms: _422  and  _424
REMARK  180  A    between atoms: _424  and  _425
REMARK  181  A    between atoms: _427  and  _429
REMARK  182  A    between atoms: _429  and  _430
REMARK  183  A    between atoms: _429  and  _432
REMARK  184  A    between atoms: _432  and  _433
REMARK  185  A    between atoms: _433  and  _434
REMARK  186  A    between atoms: _437  and  _439
REMARK  187  A    between atoms: _439  and  _440
REMARK  188  A    between atoms: _442  and  _444
REMARK  189  A    between atoms: _444  and  _445
REMARK  190  A    between atoms: _444  and  _447
REMARK  191  A    between atoms: _447  and  _448
REMARK  192  A    between atoms: _449  and  _451
REMARK  193  A    between atoms: _451  and  _452
REMARK  194  A    between atoms: _455  and  _457
REMARK  195  A    between atoms: _457  and  _458
REMARK  196  A    between atoms: _457  and  _460
REMARK  197  A    between atoms: _460  and  _461
REMARK  198  A    between atoms: _461  and  _462
REMARK  199  A    between atoms: _462  and  _463
REMARK  200  A    between atoms: _472  and  _474
REMARK  201  A    between atoms: _474  and  _475
REMARK  202  A    between atoms: _474  and  _477
REMARK  203  A    between atoms: _477  and  _478
REMARK  204  A    between atoms: _478  and  _479
REMARK  205  A    between atoms: _479  and  _480
REMARK  206  A    between atoms: _480  and  _481
REMARK  207  A    between atoms: _485  and  _487
REMARK  208  A    between atoms: _487  and  _488
REMARK  209  A    between atoms: _487  and  _490
REMARK  210  A    between atoms: _490  and  _491
REMARK  211  A    between atoms: _496  and  _497
REMARK  212  A    between atoms: _499  and  _501
REMARK  213  A    between atoms: _501  and  _502
REMARK  214  A    between atoms: _504  and  _506
REMARK  215  A    between atoms: _506  and  _507
REMARK  216  A    between atoms: _506  and  _509
REMARK  217  A    between atoms: _509  and  _510
REMARK  218  A    between atoms: _513  and  _515
REMARK  219  A    between atoms: _515  and  _516
REMARK  220  A    between atoms: _515  and  _518
REMARK  221  A    between atoms: _518  and  _519
REMARK  222  A    between atoms: _524  and  _525
REMARK  223  A    between atoms: _527  and  _529
REMARK  224  A    between atoms: _529  and  _530
REMARK  225  A    between atoms: _529  and  _532
REMARK  226  A    between atoms: _532  and  _533
REMARK                            x       y       z     vdW  Elec       q    Type
REMARK                         _______ _______ _______ _____ _____    ______ ____
ROOT
ATOM      1  O   HOH     1      11.044  61.676  -5.686  0.00  0.00    +0.000 OA
ENDROOT
TORSDOF 0
REMARK  Name = ../refined-set-2016/2vwn/2vwn_pocket.pdb
REMARK  226 active torsions:
REMARK  status: ('A' for Active; 'I' for Inactive)
REMARK    1  A    between atoms: _1  and  _5
REMARK    2  A    between atoms: _5  and  _6
REMARK    3  A    between atoms: _5  and  _8
REMARK    4  A    between atoms: _8  and  _9
REMARK    5  A    between atoms: _12  and  _14
REMARK    6  A    between atoms: _14  and  _15
REMARK    7  A    between atoms: _14  and  _17
REMARK    8  A    between atoms: _20  and  _22
REMARK    9  A    between atoms: _22  and  _23
REMARK   10  A    between atoms: _22  and  _25
REMARK   11  A    between atoms: _25  and  _26
REMARK   12  A    between atoms: _31  and  _33
REMARK   13  A    between atoms: _33  and  _34
REMARK   14  A    between atoms: _33  and  _36
REMARK   15  A    between atoms: _36  and  _37
REMARK   16  A    between atoms: _37  and  _38
REMARK   17  A    between atoms: _43  and  _45
REMARK   18  A    between atoms: _45  and  _46
REMARK   19  A    between atoms: _45  and  _48
REMARK   20  A    between atoms: _48  and  _49
REMARK   21  A    between atoms: _52  and  _54
REMARK   22  A    between atoms: _54  and  _55
REMARK   23  A    between atoms: _54  and  _57
REMARK   24  A    between atoms: _57  and  _58
REMARK   25  A    between atoms: _58  and  _59
REMARK   26  A    between atoms: _59  and  _60
REMARK   27  A    between atoms: _60  and  _61
REMARK   28  A    between atoms: _65  and  _67
REMARK   29  A    between atoms: _67  and  _68
REMARK   30  A    between atoms: _67  and  _70
REMARK   31  A    between atoms: _70  and  _71
REMARK   32  A    between atoms: _71  and  _72
REMARK   33  A    between atoms: _75  and  _77
REMARK   34  A    between atoms: _77  and  _78
REMARK   35  A    between atoms: _77  and  _80
REMARK   36  A    between atoms: _80  and  _81
REMARK   37  A    between atoms: _84  and  _86
REMARK   38  A    between atoms: _86  and  _87
REMARK   39  A    between atoms: _86  and  _89
REMARK   40  A    between atoms: _89  and  _90
REMARK   41  A    between atoms: _95  and  _96
REMARK   42  A    between atoms: _98  and  _100
REMARK   43  A    between atoms: _100  and  _101
REMARK   44  A    between atoms: _100  and  _103
REMARK   45  A    between atoms: _103  and  _104
REMARK   46  A    between atoms: _107  and  _109
REMARK   47  A    between atoms: _109  and  _110
REMARK   48  A    between atoms: _109  and  _112
REMARK   49  A    between atoms: _112  and  _113
REMARK   50  A    between atoms: _116  and  _118
REMARK   51  A    between atoms: _118  and  _119
REMARK   52  A    between atoms: _118  and  _121
REMARK   53  A    between atoms: _124  and  _126
REMARK   54  A    between atoms: _126  and  _127
REMARK   55  A    between atoms: _126  and  _129
REMARK   56  A    between atoms: _129  and  _130
REMARK   57  A    between atoms: _130  and  _131
REMARK   58  A    between atoms: _131  and  _132
REMARK   59  A    between atoms: _141  and  _143
REMARK   60  A    between atoms: _143  and  _144
REMARK   61  A    between atoms: _143  and  _146
REMARK   62  A    between atoms: _146  and  _147
REMARK   63  A    between atoms: _152  and  _154
REMARK   64  A    between atoms: _154  and  _155
REMARK   65  A    between atoms: _154  and  _157
REMARK   66  A    between atoms: _157  and  _158
REMARK   67  A    between atoms: _158  and  _159
REMARK   68  A    between atoms: _162  and  _164
REMARK   69  A    between atoms: _164  and  _165
REMARK   70  A    between atoms: _164  and  _167
REMARK   71  A    between atoms: _167  and  _168
REMARK   72  A    between atoms: _168  and  _169
REMARK   73  A    between atoms: _169  and  _170
REMARK   74  A    between atoms: _170  and  _171
REMARK   75  A    between atoms: _175  and  _177
REMARK   76  A    between atoms: _177  and  _178
REMARK   77  A    between atoms: _180  and  _182
REMARK   78  A    between atoms: _182  and  _183
REMARK   79  A    between atoms: _182  and  _185
REMARK   80  A    between atoms: _185  and  _186
REMARK   81  A    between atoms: _186  and  _187
REMARK   82  A    between atoms: _192  and  _194
REMARK   83  A    between atoms: _194  and  _195
REMARK   84  A    between atoms: _194  and  _197
REMARK   85  A    between atoms: _200  and  _202
REMARK   86  A    between atoms: _202  and  _203
REMARK   87  A    between atoms: _202  and  _205
REMARK   88  A    between atoms: _205  and  _206
REMARK   89  A    between atoms: _208  and  _210
REMARK   90  A    between atoms: _210  and  _211
REMARK   91  A    between atoms: _210  and  _213
REMARK   92  A    between atoms: _213  and  _214
REMARK   93  A    between atoms: _216  and  _218
REMARK   94  A    between atoms: _218  and  _219
REMARK   95  A    between atoms: _218  and  _221
REMARK   96  A    between atoms: _221  and  _222
REMARK   97  A    between atoms: _228  and  _230
REMARK   98  A    between atoms: _230  and  _231
REMARK   99  A    between atoms: _230  and  _233
REMARK  100  A    between atoms: _233  and  _234
REMARK  101  A    between atoms: _237  and  _239
REMARK  102  A    between atoms: _239  and  _240
REMARK  103  A    between atoms: _239  and  _242
REMARK  104  A    between atoms: _242  and  _243
REMARK  105  A    between atoms: _246  and  _248
REMARK  106  A    between atoms: _248  and  _249
REMARK  107  A    between atoms: _248  and  _251
REMARK  108  A    between atoms: _251  and  _252
REMARK  109  A    between atoms: _255  and  _257
REMARK  110  A    between atoms: _257  and  _258
REMARK  111  A    between atoms: _257  and  _260
REMARK  112  A    between atoms: _260  and  _261
REMARK  113  A    between atoms: _261  and  _262
REMARK  114  A    between atoms: _264  and  _266
REMARK  115  A    between atoms: _266  and  _267
REMARK  116  A    between atoms: _266  and  _269
REMARK  117  A    between atoms: _269  and  _270
REMARK  118  A    between atoms: _276  and  _278
REMARK  119  A    between atoms: _278  and  _279
REMARK  120  A    between atoms: _278  and  _281
REMARK  121  A    between atoms: _283  and  _285
REMARK  122  A    between atoms: _285  and  _286
REMARK  123  A    between atoms: _289  and  _291
REMARK  124  A    between atoms: _291  and  _292
REMARK  125  A    between atoms: _294  and  _296
REMARK  126  A    between atoms: _296  and  _297
REMARK  127  A    between atoms: _296  and  _299
REMARK  128  A    between atoms: _299  and  _300
REMARK  129  A    between atoms: _300  and  _301
REMARK  130  A    between atoms: _304  and  _306
REMARK  131  A    between atoms: _306  and  _307
REMARK  132  A    between atoms: _306  and  _309
REMARK  133  A    between atoms: _309  and  _310
REMARK  134  A    between atoms: _313  and  _315
REMARK  135  A    between atoms: _315  and  _316
REMARK  136  A    between atoms: _319  and  _321
REMARK  137  A    between atoms: _321  and  _322
REMARK  138  A    between atoms: _321  and  _324
REMARK  139  A    between atoms: _324  and  _325
REMARK  140  A    between atoms: _325  and  _448
REMARK  141  A    between atoms: _326  and  _328
REMARK  142  A    between atoms: _328  and  _329
REMARK  143  A    between atoms: _328  and  _331
REMARK  144  A    between atoms: _331  and  _332
REMARK  145  A    between atoms: _332  and  _333
REMARK  146  A    between atoms: _338  and  _340
REMARK  147  A    between atoms: _340  and  _341
REMARK  148  A    between atoms: _343  and  _345
REMARK  149  A    between atoms: _345  and  _346
REMARK  150  A    between atoms: _345  and  _348
REMARK  151  A    between atoms: _348  and  _349
REMARK  152  A    between atoms: _352  and  _354
REMARK  153  A    between atoms: _354  and  _355
REMARK  154  A    between atoms: _354  and  _357
REMARK  155  A    between atoms: _357  and  _358
REMARK  156  A    between atoms: _360  and  _362
REMARK  157  A    between atoms: _362  and  _363
REMARK  158  A    between atoms: _365  and  _367
REMARK  159  A    between atoms: _367  and  _368
REMARK  160  A    between atoms: _370  and  _372
REMARK  161  A    between atoms: _372  and  _373
REMARK  162  A    between atoms: _372  and  _375
REMARK  163  A    between atoms: _375  and  _376
REMARK  164  A    between atoms: _381  and  _383
REMARK  165  A    between atoms: _383  and  _384
REMARK  166  A    between atoms: _383  and  _386
REMARK  167  A    between atoms: _386  and  _387
REMARK  168  A    between atoms: _390  and  _392
REMARK  169  A    between atoms: _392  and  _393
REMARK  170  A    between atoms: _392  and  _395
REMARK  171  A    between atoms: _398  and  _400
REMARK  172  A    between atoms: _400  and  _401
REMARK  173  A    between atoms: _400  and  _403
REMARK  174  A    between atoms: _403  and  _404
REMARK  175  A    between atoms: _406  and  _408
REMARK  176  A    between atoms: _408  and  _409
REMARK  177  A    between atoms: _408  and  _411
REMARK  178  A    between atoms: _411  and  _412
REMARK  179  A    between atoms: _422  and  _424
REMARK  180  A    between atoms: _424  and  _425
REMARK  181  A    between atoms: _427  and  _429
REMARK  182  A    between atoms: _429  and  _430
REMARK  183  A    between atoms: _429  and  _432
REMARK  184  A    between atoms: _432  and  _433
REMARK  185  A    between atoms: _433  and  _434
REMARK  186  A    between atoms: _437  and  _439
REMARK  187  A    between atoms: _439  and  _440
REMARK  188  A    between atoms: _442  and  _444
REMARK  189  A    between atoms: _444  and  _445
REMARK  190  A    between atoms: _444  and  _447
REMARK  191  A    between atoms: _447  and  _448
REMARK  192  A    between atoms: _449  and  _451
REMARK  193  A    between atoms: _451  and  _452
REMARK  194  A    between atoms: _455  and  _457
REMARK  195  A    between atoms: _457  and  _458
REMARK  196  A    between atoms: _457  and  _460
REMARK  197  A    between atoms: _460  and  _461
REMARK  198  A    between atoms: _461  and  _462
REMARK  199  A    between atoms: _462  and  _463
REMARK  200  A    between atoms: _472  and  _474
REMARK  201  A    between atoms: _474  and  _475
REMARK  202  A    between atoms: _474  and  _477
REMARK  203  A    between atoms: _477  and  _478
REMARK  204  A    between atoms: _478  and  _479
REMARK  205  A    between atoms: _479  and  _480
REMARK  206  A    between atoms: _480  and  _481
REMARK  207  A    between atoms: _485  and  _487
REMARK  208  A    between atoms: _487  and  _488
REMARK  209  A    between atoms: _487  and  _490
REMARK  210  A    between atoms: _490  and  _491
REMARK  211  A    between atoms: _496  and  _497
REMARK  212  A    between atoms: _499  and  _501
REMARK  213  A    between atoms: _501  and  _502
REMARK  214  A    between atoms: _504  and  _506
REMARK  215  A    between atoms: _506  and  _507
REMARK  216  A    between atoms: _506  and  _509
REMARK  217  A    between atoms: _509  and  _510
REMARK  218  A    between atoms: _513  and  _515
REMARK  219  A    between atoms: _515  and  _516
REMARK  220  A    between atoms: _515  and  _518
REMARK  221  A    between atoms: _518  and  _519
REMARK  222  A    between atoms: _524  and  _525
REMARK  223  A    between atoms: _527  and  _529
REMARK  224  A    between atoms: _529  and  _530
REMARK  225  A    between atoms: _529  and  _532
REMARK  226  A    between atoms: _532  and  _533
REMARK                            x       y       z     vdW  Elec       q    Type
REMARK                         _______ _______ _______ _____ _____    ______ ____
ROOT
ATOM      1  O   HOH     1      14.178  64.516  -2.225  0.00  0.00    +0.000 OA
ENDROOT
TORSDOF 0
REMARK  Name = ../refined-set-2016/2vwn/2vwn_pocket.pdb
REMARK  226 active torsions:
REMARK  status: ('A' for Active; 'I' for Inactive)
REMARK    1  A    between atoms: _1  and  _5
REMARK    2  A    between atoms: _5  and  _6
REMARK    3  A    between atoms: _5  and  _8
REMARK    4  A    between atoms: _8  and  _9
REMARK    5  A    between atoms: _12  and  _14
REMARK    6  A    between atoms: _14  and  _15
REMARK    7  A    between atoms: _14  and  _17
REMARK    8  A    between atoms: _20  and  _22
REMARK    9  A    between atoms: _22  and  _23
REMARK   10  A    between atoms: _22  and  _25
REMARK   11  A    between atoms: _25  and  _26
REMARK   12  A    between atoms: _31  and  _33
REMARK   13  A    between atoms: _33  and  _34
REMARK   14  A    between atoms: _33  and  _36
REMARK   15  A    between atoms: _36  and  _37
REMARK   16  A    between atoms: _37  and  _38
REMARK   17  A    between atoms: _43  and  _45
REMARK   18  A    between atoms: _45  and  _46
REMARK   19  A    between atoms: _45  and  _48
REMARK   20  A    between atoms: _48  and  _49
REMARK   21  A    between atoms: _52  and  _54
REMARK   22  A    between atoms: _54  and  _55
REMARK   23  A    between atoms: _54  and  _57
REMARK   24  A    between atoms: _57  and  _58
REMARK   25  A    between atoms: _58  and  _59
REMARK   26  A    between atoms: _59  and  _60
REMARK   27  A    between atoms: _60  and  _61
REMARK   28  A    between atoms: _65  and  _67
REMARK   29  A    between atoms: _67  and  _68
REMARK   30  A    between atoms: _67  and  _70
REMARK   31  A    between atoms: _70  and  _71
REMARK   32  A    between atoms: _71  and  _72
REMARK   33  A    between atoms: _75  and  _77
REMARK   34  A    between atoms: _77  and  _78
REMARK   35  A    between atoms: _77  and  _80
REMARK   36  A    between atoms: _80  and  _81
REMARK   37  A    between atoms: _84  and  _86
REMARK   38  A    between atoms: _86  and  _87
REMARK   39  A    between atoms: _86  and  _89
REMARK   40  A    between atoms: _89  and  _90
REMARK   41  A    between atoms: _95  and  _96
REMARK   42  A    between atoms: _98  and  _100
REMARK   43  A    between atoms: _100  and  _101
REMARK   44  A    between atoms: _100  and  _103
REMARK   45  A    between atoms: _103  and  _104
REMARK   46  A    between atoms: _107  and  _109
REMARK   47  A    between atoms: _109  and  _110
REMARK   48  A    between atoms: _109  and  _112
REMARK   49  A    between atoms: _112  and  _113
REMARK   50  A    between atoms: _116  and  _118
REMARK   51  A    between atoms: _118  and  _119
REMARK   52  A    between atoms: _118  and  _121
REMARK   53  A    between atoms: _124  and  _126
REMARK   54  A    between atoms: _126  and  _127
REMARK   55  A    between atoms: _126  and  _129
REMARK   56  A    between atoms: _129  and  _130
REMARK   57  A    between atoms: _130  and  _131
REMARK   58  A    between atoms: _131  and  _132
REMARK   59  A    between atoms: _141  and  _143
REMARK   60  A    between atoms: _143  and  _144
REMARK   61  A    between atoms: _143  and  _146
REMARK   62  A    between atoms: _146  and  _147
REMARK   63  A    between atoms: _152  and  _154
REMARK   64  A    between atoms: _154  and  _155
REMARK   65  A    between atoms: _154  and  _157
REMARK   66  A    between atoms: _157  and  _158
REMARK   67  A    between atoms: _158  and  _159
REMARK   68  A    between atoms: _162  and  _164
REMARK   69  A    between atoms: _164  and  _165
REMARK   70  A    between atoms: _164  and  _167
REMARK   71  A    between atoms: _167  and  _168
REMARK   72  A    between atoms: _168  and  _169
REMARK   73  A    between atoms: _169  and  _170
REMARK   74  A    between atoms: _170  and  _171
REMARK   75  A    between atoms: _175  and  _177
REMARK   76  A    between atoms: _177  and  _178
REMARK   77  A    between atoms: _180  and  _182
REMARK   78  A    between atoms: _182  and  _183
REMARK   79  A    between atoms: _182  and  _185
REMARK   80  A    between atoms: _185  and  _186
REMARK   81  A    between atoms: _186  and  _187
REMARK   82  A    between atoms: _192  and  _194
REMARK   83  A    between atoms: _194  and  _195
REMARK   84  A    between atoms: _194  and  _197
REMARK   85  A    between atoms: _200  and  _202
REMARK   86  A    between atoms: _202  and  _203
REMARK   87  A    between atoms: _202  and  _205
REMARK   88  A    between atoms: _205  and  _206
REMARK   89  A    between atoms: _208  and  _210
REMARK   90  A    between atoms: _210  and  _211
REMARK   91  A    between atoms: _210  and  _213
REMARK   92  A    between atoms: _213  and  _214
REMARK   93  A    between atoms: _216  and  _218
REMARK   94  A    between atoms: _218  and  _219
REMARK   95  A    between atoms: _218  and  _221
REMARK   96  A    between atoms: _221  and  _222
REMARK   97  A    between atoms: _228  and  _230
REMARK   98  A    between atoms: _230  and  _231
REMARK   99  A    between atoms: _230  and  _233
REMARK  100  A    between atoms: _233  and  _234
REMARK  101  A    between atoms: _237  and  _239
REMARK  102  A    between atoms: _239  and  _240
REMARK  103  A    between atoms: _239  and  _242
REMARK  104  A    between atoms: _242  and  _243
REMARK  105  A    between atoms: _246  and  _248
REMARK  106  A    between atoms: _248  and  _249
REMARK  107  A    between atoms: _248  and  _251
REMARK  108  A    between atoms: _251  and  _252
REMARK  109  A    between atoms: _255  and  _257
REMARK  110  A    between atoms: _257  and  _258
REMARK  111  A    between atoms: _257  and  _260
REMARK  112  A    between atoms: _260  and  _261
REMARK  113  A    between atoms: _261  and  _262
REMARK  114  A    between atoms: _264  and  _266
REMARK  115  A    between atoms: _266  and  _267
REMARK  116  A    between atoms: _266  and  _269
REMARK  117  A    between atoms: _269  and  _270
REMARK  118  A    between atoms: _276  and  _278
REMARK  119  A    between atoms: _278  and  _279
REMARK  120  A    between atoms: _278  and  _281
REMARK  121  A    between atoms: _283  and  _285
REMARK  122  A    between atoms: _285  and  _286
REMARK  123  A    between atoms: _289  and  _291
REMARK  124  A    between atoms: _291  and  _292
REMARK  125  A    between atoms: _294  and  _296
REMARK  126  A    between atoms: _296  and  _297
REMARK  127  A    between atoms: _296  and  _299
REMARK  128  A    between atoms: _299  and  _300
REMARK  129  A    between atoms: _300  and  _301
REMARK  130  A    between atoms: _304  and  _306
REMARK  131  A    between atoms: _306  and  _307
REMARK  132  A    between atoms: _306  and  _309
REMARK  133  A    between atoms: _309  and  _310
REMARK  134  A    between atoms: _313  and  _315
REMARK  135  A    between atoms: _315  and  _316
REMARK  136  A    between atoms: _319  and  _321
REMARK  137  A    between atoms: _321  and  _322
REMARK  138  A    between atoms: _321  and  _324
REMARK  139  A    between atoms: _324  and  _325
REMARK  140  A    between atoms: _325  and  _448
REMARK  141  A    between atoms: _326  and  _328
REMARK  142  A    between atoms: _328  and  _329
REMARK  143  A    between atoms: _328  and  _331
REMARK  144  A    between atoms: _331  and  _332
REMARK  145  A    between atoms: _332  and  _333
REMARK  146  A    between atoms: _338  and  _340
REMARK  147  A    between atoms: _340  and  _341
REMARK  148  A    between atoms: _343  and  _345
REMARK  149  A    between atoms: _345  and  _346
REMARK  150  A    between atoms: _345  and  _348
REMARK  151  A    between atoms: _348  and  _349
REMARK  152  A    between atoms: _352  and  _354
REMARK  153  A    between atoms: _354  and  _355
REMARK  154  A    between atoms: _354  and  _357
REMARK  155  A    between atoms: _357  and  _358
REMARK  156  A    between atoms: _360  and  _362
REMARK  157  A    between atoms: _362  and  _363
REMARK  158  A    between atoms: _365  and  _367
REMARK  159  A    between atoms: _367  and  _368
REMARK  160  A    between atoms: _370  and  _372
REMARK  161  A    between atoms: _372  and  _373
REMARK  162  A    between atoms: _372  and  _375
REMARK  163  A    between atoms: _375  and  _376
REMARK  164  A    between atoms: _381  and  _383
REMARK  165  A    between atoms: _383  and  _384
REMARK  166  A    between atoms: _383  and  _386
REMARK  167  A    between atoms: _386  and  _387
REMARK  168  A    between atoms: _390  and  _392
REMARK  169  A    between atoms: _392  and  _393
REMARK  170  A    between atoms: _392  and  _395
REMARK  171  A    between atoms: _398  and  _400
REMARK  172  A    between atoms: _400  and  _401
REMARK  173  A    between atoms: _400  and  _403
REMARK  174  A    between atoms: _403  and  _404
REMARK  175  A    between atoms: _406  and  _408
REMARK  176  A    between atoms: _408  and  _409
REMARK  177  A    between atoms: _408  and  _411
REMARK  178  A    between atoms: _411  and  _412
REMARK  179  A    between atoms: _422  and  _424
REMARK  180  A    between atoms: _424  and  _425
REMARK  181  A    between atoms: _427  and  _429
REMARK  182  A    between atoms: _429  and  _430
REMARK  183  A    between atoms: _429  and  _432
REMARK  184  A    between atoms: _432  and  _433
REMARK  185  A    between atoms: _433  and  _434
REMARK  186  A    between atoms: _437  and  _439
REMARK  187  A    between atoms: _439  and  _440
REMARK  188  A    between atoms: _442  and  _444
REMARK  189  A    between atoms: _444  and  _445
REMARK  190  A    between atoms: _444  and  _447
REMARK  191  A    between atoms: _447  and  _448
REMARK  192  A    between atoms: _449  and  _451
REMARK  193  A    between atoms: _451  and  _452
REMARK  194  A    between atoms: _455  and  _457
REMARK  195  A    between atoms: _457  and  _458
REMARK  196  A    between atoms: _457  and  _460
REMARK  197  A    between atoms: _460  and  _461
REMARK  198  A    between atoms: _461  and  _462
REMARK  199  A    between atoms: _462  and  _463
REMARK  200  A    between atoms: _472  and  _474
REMARK  201  A    between atoms: _474  and  _475
REMARK  202  A    between atoms: _474  and  _477
REMARK  203  A    between atoms: _477  and  _478
REMARK  204  A    between atoms: _478  and  _479
REMARK  205  A    between atoms: _479  and  _480
REMARK  206  A    between atoms: _480  and  _481
REMARK  207  A    between atoms: _485  and  _487
REMARK  208  A    between atoms: _487  and  _488
REMARK  209  A    between atoms: _487  and  _490
REMARK  210  A    between atoms: _490  and  _491
REMARK  211  A    between atoms: _496  and  _497
REMARK  212  A    between atoms: _499  and  _501
REMARK  213  A    between atoms: _501  and  _502
REMARK  214  A    between atoms: _504  and  _506
REMARK  215  A    between atoms: _506  and  _507
REMARK  216  A    between atoms: _506  and  _509
REMARK  217  A    between atoms: _509  and  _510
REMARK  218  A    between atoms: _513  and  _515
REMARK  219  A    between atoms: _515  and  _516
REMARK  220  A    between atoms: _515  and  _518
REMARK  221  A    between atoms: _518  and  _519
REMARK  222  A    between atoms: _524  and  _525
REMARK  223  A    between atoms: _527  and  _529
REMARK  224  A    between atoms: _529  and  _530
REMARK  225  A    between atoms: _529  and  _532
REMARK  226  A    between atoms: _532  and  _533
REMARK                            x       y       z     vdW  Elec       q    Type
REMARK                         _______ _______ _______ _____ _____    ______ ____
ROOT
ATOM      1  O   HOH     1       9.128  70.966   0.847  0.00  0.00    +0.000 OA
ENDROOT
TORSDOF 0
REMARK  Name = ../refined-set-2016/2vwn/2vwn_pocket.pdb
REMARK  226 active torsions:
REMARK  status: ('A' for Active; 'I' for Inactive)
REMARK    1  A    between atoms: _1  and  _5
REMARK    2  A    between atoms: _5  and  _6
REMARK    3  A    between atoms: _5  and  _8
REMARK    4  A    between atoms: _8  and  _9
REMARK    5  A    between atoms: _12  and  _14
REMARK    6  A    between atoms: _14  and  _15
REMARK    7  A    between atoms: _14  and  _17
REMARK    8  A    between atoms: _20  and  _22
REMARK    9  A    between atoms: _22  and  _23
REMARK   10  A    between atoms: _22  and  _25
REMARK   11  A    between atoms: _25  and  _26
REMARK   12  A    between atoms: _31  and  _33
REMARK   13  A    between atoms: _33  and  _34
REMARK   14  A    between atoms: _33  and  _36
REMARK   15  A    between atoms: _36  and  _37
REMARK   16  A    between atoms: _37  and  _38
REMARK   17  A    between atoms: _43  and  _45
REMARK   18  A    between atoms: _45  and  _46
REMARK   19  A    between atoms: _45  and  _48
REMARK   20  A    between atoms: _48  and  _49
REMARK   21  A    between atoms: _52  and  _54
REMARK   22  A    between atoms: _54  and  _55
REMARK   23  A    between atoms: _54  and  _57
REMARK   24  A    between atoms: _57  and  _58
REMARK   25  A    between atoms: _58  and  _59
REMARK   26  A    between atoms: _59  and  _60
REMARK   27  A    between atoms: _60  and  _61
REMARK   28  A    between atoms: _65  and  _67
REMARK   29  A    between atoms: _67  and  _68
REMARK   30  A    between atoms: _67  and  _70
REMARK   31  A    between atoms: _70  and  _71
REMARK   32  A    between atoms: _71  and  _72
REMARK   33  A    between atoms: _75  and  _77
REMARK   34  A    between atoms: _77  and  _78
REMARK   35  A    between atoms: _77  and  _80
REMARK   36  A    between atoms: _80  and  _81
REMARK   37  A    between atoms: _84  and  _86
REMARK   38  A    between atoms: _86  and  _87
REMARK   39  A    between atoms: _86  and  _89
REMARK   40  A    between atoms: _89  and  _90
REMARK   41  A    between atoms: _95  and  _96
REMARK   42  A    between atoms: _98  and  _100
REMARK   43  A    between atoms: _100  and  _101
REMARK   44  A    between atoms: _100  and  _103
REMARK   45  A    between atoms: _103  and  _104
REMARK   46  A    between atoms: _107  and  _109
REMARK   47  A    between atoms: _109  and  _110
REMARK   48  A    between atoms: _109  and  _112
REMARK   49  A    between atoms: _112  and  _113
REMARK   50  A    between atoms: _116  and  _118
REMARK   51  A    between atoms: _118  and  _119
REMARK   52  A    between atoms: _118  and  _121
REMARK   53  A    between atoms: _124  and  _126
REMARK   54  A    between atoms: _126  and  _127
REMARK   55  A    between atoms: _126  and  _129
REMARK   56  A    between atoms: _129  and  _130
REMARK   57  A    between atoms: _130  and  _131
REMARK   58  A    between atoms: _131  and  _132
REMARK   59  A    between atoms: _141  and  _143
REMARK   60  A    between atoms: _143  and  _144
REMARK   61  A    between atoms: _143  and  _146
REMARK   62  A    between atoms: _146  and  _147
REMARK   63  A    between atoms: _152  and  _154
REMARK   64  A    between atoms: _154  and  _155
REMARK   65  A    between atoms: _154  and  _157
REMARK   66  A    between atoms: _157  and  _158
REMARK   67  A    between atoms: _158  and  _159
REMARK   68  A    between atoms: _162  and  _164
REMARK   69  A    between atoms: _164  and  _165
REMARK   70  A    between atoms: _164  and  _167
REMARK   71  A    between atoms: _167  and  _168
REMARK   72  A    between atoms: _168  and  _169
REMARK   73  A    between atoms: _169  and  _170
REMARK   74  A    between atoms: _170  and  _171
REMARK   75  A    between atoms: _175  and  _177
REMARK   76  A    between atoms: _177  and  _178
REMARK   77  A    between atoms: _180  and  _182
REMARK   78  A    between atoms: _182  and  _183
REMARK   79  A    between atoms: _182  and  _185
REMARK   80  A    between atoms: _185  and  _186
REMARK   81  A    between atoms: _186  and  _187
REMARK   82  A    between atoms: _192  and  _194
REMARK   83  A    between atoms: _194  and  _195
REMARK   84  A    between atoms: _194  and  _197
REMARK   85  A    between atoms: _200  and  _202
REMARK   86  A    between atoms: _202  and  _203
REMARK   87  A    between atoms: _202  and  _205
REMARK   88  A    between atoms: _205  and  _206
REMARK   89  A    between atoms: _208  and  _210
REMARK   90  A    between atoms: _210  and  _211
REMARK   91  A    between atoms: _210  and  _213
REMARK   92  A    between atoms: _213  and  _214
REMARK   93  A    between atoms: _216  and  _218
REMARK   94  A    between atoms: _218  and  _219
REMARK   95  A    between atoms: _218  and  _221
REMARK   96  A    between atoms: _221  and  _222
REMARK   97  A    between atoms: _228  and  _230
REMARK   98  A    between atoms: _230  and  _231
REMARK   99  A    between atoms: _230  and  _233
REMARK  100  A    between atoms: _233  and  _234
REMARK  101  A    between atoms: _237  and  _239
REMARK  102  A    between atoms: _239  and  _240
REMARK  103  A    between atoms: _239  and  _242
REMARK  104  A    between atoms: _242  and  _243
REMARK  105  A    between atoms: _246  and  _248
REMARK  106  A    between atoms: _248  and  _249
REMARK  107  A    between atoms: _248  and  _251
REMARK  108  A    between atoms: _251  and  _252
REMARK  109  A    between atoms: _255  and  _257
REMARK  110  A    between atoms: _257  and  _258
REMARK  111  A    between atoms: _257  and  _260
REMARK  112  A    between atoms: _260  and  _261
REMARK  113  A    between atoms: _261  and  _262
REMARK  114  A    between atoms: _264  and  _266
REMARK  115  A    between atoms: _266  and  _267
REMARK  116  A    between atoms: _266  and  _269
REMARK  117  A    between atoms: _269  and  _270
REMARK  118  A    between atoms: _276  and  _278
REMARK  119  A    between atoms: _278  and  _279
REMARK  120  A    between atoms: _278  and  _281
REMARK  121  A    between atoms: _283  and  _285
REMARK  122  A    between atoms: _285  and  _286
REMARK  123  A    between atoms: _289  and  _291
REMARK  124  A    between atoms: _291  and  _292
REMARK  125  A    between atoms: _294  and  _296
REMARK  126  A    between atoms: _296  and  _297
REMARK  127  A    between atoms: _296  and  _299
REMARK  128  A    between atoms: _299  and  _300
REMARK  129  A    between atoms: _300  and  _301
REMARK  130  A    between atoms: _304  and  _306
REMARK  131  A    between atoms: _306  and  _307
REMARK  132  A    between atoms: _306  and  _309
REMARK  133  A    between atoms: _309  and  _310
REMARK  134  A    between atoms: _313  and  _315
REMARK  135  A    between atoms: _315  and  _316
REMARK  136  A    between atoms: _319  and  _321
REMARK  137  A    between atoms: _321  and  _322
REMARK  138  A    between atoms: _321  and  _324
REMARK  139  A    between atoms: _324  and  _325
REMARK  140  A    between atoms: _325  and  _448
REMARK  141  A    between atoms: _326  and  _328
REMARK  142  A    between atoms: _328  and  _329
REMARK  143  A    between atoms: _328  and  _331
REMARK  144  A    between atoms: _331  and  _332
REMARK  145  A    between atoms: _332  and  _333
REMARK  146  A    between atoms: _338  and  _340
REMARK  147  A    between atoms: _340  and  _341
REMARK  148  A    between atoms: _343  and  _345
REMARK  149  A    between atoms: _345  and  _346
REMARK  150  A    between atoms: _345  and  _348
REMARK  151  A    between atoms: _348  and  _349
REMARK  152  A    between atoms: _352  and  _354
REMARK  153  A    between atoms: _354  and  _355
REMARK  154  A    between atoms: _354  and  _357
REMARK  155  A    between atoms: _357  and  _358
REMARK  156  A    between atoms: _360  and  _362
REMARK  157  A    between atoms: _362  and  _363
REMARK  158  A    between atoms: _365  and  _367
REMARK  159  A    between atoms: _367  and  _368
REMARK  160  A    between atoms: _370  and  _372
REMARK  161  A    between atoms: _372  and  _373
REMARK  162  A    between atoms: _372  and  _375
REMARK  163  A    between atoms: _375  and  _376
REMARK  164  A    between atoms: _381  and  _383
REMARK  165  A    between atoms: _383  and  _384
REMARK  166  A    between atoms: _383  and  _386
REMARK  167  A    between atoms: _386  and  _387
REMARK  168  A    between atoms: _390  and  _392
REMARK  169  A    between atoms: _392  and  _393
REMARK  170  A    between atoms: _392  and  _395
REMARK  171  A    between atoms: _398  and  _400
REMARK  172  A    between atoms: _400  and  _401
REMARK  173  A    between atoms: _400  and  _403
REMARK  174  A    between atoms: _403  and  _404
REMARK  175  A    between atoms: _406  and  _408
REMARK  176  A    between atoms: _408  and  _409
REMARK  177  A    between atoms: _408  and  _411
REMARK  178  A    between atoms: _411  and  _412
REMARK  179  A    between atoms: _422  and  _424
REMARK  180  A    between atoms: _424  and  _425
REMARK  181  A    between atoms: _427  and  _429
REMARK  182  A    between atoms: _429  and  _430
REMARK  183  A    between atoms: _429  and  _432
REMARK  184  A    between atoms: _432  and  _433
REMARK  185  A    between atoms: _433  and  _434
REMARK  186  A    between atoms: _437  and  _439
REMARK  187  A    between atoms: _439  and  _440
REMARK  188  A    between atoms: _442  and  _444
REMARK  189  A    between atoms: _444  and  _445
REMARK  190  A    between atoms: _444  and  _447
REMARK  191  A    between atoms: _447  and  _448
REMARK  192  A    between atoms: _449  and  _451
REMARK  193  A    between atoms: _451  and  _452
REMARK  194  A    between atoms: _455  and  _457
REMARK  195  A    between atoms: _457  and  _458
REMARK  196  A    between atoms: _457  and  _460
REMARK  197  A    between atoms: _460  and  _461
REMARK  198  A    between atoms: _461  and  _462
REMARK  199  A    between atoms: _462  and  _463
REMARK  200  A    between atoms: _472  and  _474
REMARK  201  A    between atoms: _474  and  _475
REMARK  202  A    between atoms: _474  and  _477
REMARK  203  A    between atoms: _477  and  _478
REMARK  204  A    between atoms: _478  and  _479
REMARK  205  A    between atoms: _479  and  _480
REMARK  206  A    between atoms: _480  and  _481
REMARK  207  A    between atoms: _485  and  _487
REMARK  208  A    between atoms: _487  and  _488
REMARK  209  A    between atoms: _487  and  _490
REMARK  210  A    between atoms: _490  and  _491
REMARK  211  A    between atoms: _496  and  _497
REMARK  212  A    between atoms: _499  and  _501
REMARK  213  A    between atoms: _501  and  _502
REMARK  214  A    between atoms: _504  and  _506
REMARK  215  A    between atoms: _506  and  _507
REMARK  216  A    between atoms: _506  and  _509
REMARK  217  A    between atoms: _509  and  _510
REMARK  218  A    between atoms: _513  and  _515
REMARK  219  A    between atoms: _515  and  _516
REMARK  220  A    between atoms: _515  and  _518
REMARK  221  A    between atoms: _518  and  _519
REMARK  222  A    between atoms: _524  and  _525
REMARK  223  A    between atoms: _527  and  _529
REMARK  224  A    between atoms: _529  and  _530
REMARK  225  A    between atoms: _529  and  _532
REMARK  226  A    between atoms: _532  and  _533
REMARK                            x       y       z     vdW  Elec       q    Type
REMARK                         _______ _______ _______ _____ _____    ______ ____
ROOT
ATOM      1  O   HOH     1       5.906  69.110   3.970  0.00  0.00    +0.000 OA
ENDROOT
TORSDOF 0
REMARK  Name = ../refined-set-2016/2vwn/2vwn_pocket.pdb
REMARK  226 active torsions:
REMARK  status: ('A' for Active; 'I' for Inactive)
REMARK    1  A    between atoms: _1  and  _5
REMARK    2  A    between atoms: _5  and  _6
REMARK    3  A    between atoms: _5  and  _8
REMARK    4  A    between atoms: _8  and  _9
REMARK    5  A    between atoms: _12  and  _14
REMARK    6  A    between atoms: _14  and  _15
REMARK    7  A    between atoms: _14  and  _17
REMARK    8  A    between atoms: _20  and  _22
REMARK    9  A    between atoms: _22  and  _23
REMARK   10  A    between atoms: _22  and  _25
REMARK   11  A    between atoms: _25  and  _26
REMARK   12  A    between atoms: _31  and  _33
REMARK   13  A    between atoms: _33  and  _34
REMARK   14  A    between atoms: _33  and  _36
REMARK   15  A    between atoms: _36  and  _37
REMARK   16  A    between atoms: _37  and  _38
REMARK   17  A    between atoms: _43  and  _45
REMARK   18  A    between atoms: _45  and  _46
REMARK   19  A    between atoms: _45  and  _48
REMARK   20  A    between atoms: _48  and  _49
REMARK   21  A    between atoms: _52  and  _54
REMARK   22  A    between atoms: _54  and  _55
REMARK   23  A    between atoms: _54  and  _57
REMARK   24  A    between atoms: _57  and  _58
REMARK   25  A    between atoms: _58  and  _59
REMARK   26  A    between atoms: _59  and  _60
REMARK   27  A    between atoms: _60  and  _61
REMARK   28  A    between atoms: _65  and  _67
REMARK   29  A    between atoms: _67  and  _68
REMARK   30  A    between atoms: _67  and  _70
REMARK   31  A    between atoms: _70  and  _71
REMARK   32  A    between atoms: _71  and  _72
REMARK   33  A    between atoms: _75  and  _77
REMARK   34  A    between atoms: _77  and  _78
REMARK   35  A    between atoms: _77  and  _80
REMARK   36  A    between atoms: _80  and  _81
REMARK   37  A    between atoms: _84  and  _86
REMARK   38  A    between atoms: _86  and  _87
REMARK   39  A    between atoms: _86  and  _89
REMARK   40  A    between atoms: _89  and  _90
REMARK   41  A    between atoms: _95  and  _96
REMARK   42  A    between atoms: _98  and  _100
REMARK   43  A    between atoms: _100  and  _101
REMARK   44  A    between atoms: _100  and  _103
REMARK   45  A    between atoms: _103  and  _104
REMARK   46  A    between atoms: _107  and  _109
REMARK   47  A    between atoms: _109  and  _110
REMARK   48  A    between atoms: _109  and  _112
REMARK   49  A    between atoms: _112  and  _113
REMARK   50  A    between atoms: _116  and  _118
REMARK   51  A    between atoms: _118  and  _119
REMARK   52  A    between atoms: _118  and  _121
REMARK   53  A    between atoms: _124  and  _126
REMARK   54  A    between atoms: _126  and  _127
REMARK   55  A    between atoms: _126  and  _129
REMARK   56  A    between atoms: _129  and  _130
REMARK   57  A    between atoms: _130  and  _131
REMARK   58  A    between atoms: _131  and  _132
REMARK   59  A    between atoms: _141  and  _143
REMARK   60  A    between atoms: _143  and  _144
REMARK   61  A    between atoms: _143  and  _146
REMARK   62  A    between atoms: _146  and  _147
REMARK   63  A    between atoms: _152  and  _154
REMARK   64  A    between atoms: _154  and  _155
REMARK   65  A    between atoms: _154  and  _157
REMARK   66  A    between atoms: _157  and  _158
REMARK   67  A    between atoms: _158  and  _159
REMARK   68  A    between atoms: _162  and  _164
REMARK   69  A    between atoms: _164  and  _165
REMARK   70  A    between atoms: _164  and  _167
REMARK   71  A    between atoms: _167  and  _168
REMARK   72  A    between atoms: _168  and  _169
REMARK   73  A    between atoms: _169  and  _170
REMARK   74  A    between atoms: _170  and  _171
REMARK   75  A    between atoms: _175  and  _177
REMARK   76  A    between atoms: _177  and  _178
REMARK   77  A    between atoms: _180  and  _182
REMARK   78  A    between atoms: _182  and  _183
REMARK   79  A    between atoms: _182  and  _185
REMARK   80  A    between atoms: _185  and  _186
REMARK   81  A    between atoms: _186  and  _187
REMARK   82  A    between atoms: _192  and  _194
REMARK   83  A    between atoms: _194  and  _195
REMARK   84  A    between atoms: _194  and  _197
REMARK   85  A    between atoms: _200  and  _202
REMARK   86  A    between atoms: _202  and  _203
REMARK   87  A    between atoms: _202  and  _205
REMARK   88  A    between atoms: _205  and  _206
REMARK   89  A    between atoms: _208  and  _210
REMARK   90  A    between atoms: _210  and  _211
REMARK   91  A    between atoms: _210  and  _213
REMARK   92  A    between atoms: _213  and  _214
REMARK   93  A    between atoms: _216  and  _218
REMARK   94  A    between atoms: _218  and  _219
REMARK   95  A    between atoms: _218  and  _221
REMARK   96  A    between atoms: _221  and  _222
REMARK   97  A    between atoms: _228  and  _230
REMARK   98  A    between atoms: _230  and  _231
REMARK   99  A    between atoms: _230  and  _233
REMARK  100  A    between atoms: _233  and  _234
REMARK  101  A    between atoms: _237  and  _239
REMARK  102  A    between atoms: _239  and  _240
REMARK  103  A    between atoms: _239  and  _242
REMARK  104  A    between atoms: _242  and  _243
REMARK  105  A    between atoms: _246  and  _248
REMARK  106  A    between atoms: _248  and  _249
REMARK  107  A    between atoms: _248  and  _251
REMARK  108  A    between atoms: _251  and  _252
REMARK  109  A    between atoms: _255  and  _257
REMARK  110  A    between atoms: _257  and  _258
REMARK  111  A    between atoms: _257  and  _260
REMARK  112  A    between atoms: _260  and  _261
REMARK  113  A    between atoms: _261  and  _262
REMARK  114  A    between atoms: _264  and  _266
REMARK  115  A    between atoms: _266  and  _267
REMARK  116  A    between atoms: _266  and  _269
REMARK  117  A    between atoms: _269  and  _270
REMARK  118  A    between atoms: _276  and  _278
REMARK  119  A    between atoms: _278  and  _279
REMARK  120  A    between atoms: _278  and  _281
REMARK  121  A    between atoms: _283  and  _285
REMARK  122  A    between atoms: _285  and  _286
REMARK  123  A    between atoms: _289  and  _291
REMARK  124  A    between atoms: _291  and  _292
REMARK  125  A    between atoms: _294  and  _296
REMARK  126  A    between atoms: _296  and  _297
REMARK  127  A    between atoms: _296  and  _299
REMARK  128  A    between atoms: _299  and  _300
REMARK  129  A    between atoms: _300  and  _301
REMARK  130  A    between atoms: _304  and  _306
REMARK  131  A    between atoms: _306  and  _307
REMARK  132  A    between atoms: _306  and  _309
REMARK  133  A    between atoms: _309  and  _310
REMARK  134  A    between atoms: _313  and  _315
REMARK  135  A    between atoms: _315  and  _316
REMARK  136  A    between atoms: _319  and  _321
REMARK  137  A    between atoms: _321  and  _322
REMARK  138  A    between atoms: _321  and  _324
REMARK  139  A    between atoms: _324  and  _325
REMARK  140  A    between atoms: _325  and  _448
REMARK  141  A    between atoms: _326  and  _328
REMARK  142  A    between atoms: _328  and  _329
REMARK  143  A    between atoms: _328  and  _331
REMARK  144  A    between atoms: _331  and  _332
REMARK  145  A    between atoms: _332  and  _333
REMARK  146  A    between atoms: _338  and  _340
REMARK  147  A    between atoms: _340  and  _341
REMARK  148  A    between atoms: _343  and  _345
REMARK  149  A    between atoms: _345  and  _346
REMARK  150  A    between atoms: _345  and  _348
REMARK  151  A    between atoms: _348  and  _349
REMARK  152  A    between atoms: _352  and  _354
REMARK  153  A    between atoms: _354  and  _355
REMARK  154  A    between atoms: _354  and  _357
REMARK  155  A    between atoms: _357  and  _358
REMARK  156  A    between atoms: _360  and  _362
REMARK  157  A    between atoms: _362  and  _363
REMARK  158  A    between atoms: _365  and  _367
REMARK  159  A    between atoms: _367  and  _368
REMARK  160  A    between atoms: _370  and  _372
REMARK  161  A    between atoms: _372  and  _373
REMARK  162  A    between atoms: _372  and  _375
REMARK  163  A    between atoms: _375  and  _376
REMARK  164  A    between atoms: _381  and  _383
REMARK  165  A    between atoms: _383  and  _384
REMARK  166  A    between atoms: _383  and  _386
REMARK  167  A    between atoms: _386  and  _387
REMARK  168  A    between atoms: _390  and  _392
REMARK  169  A    between atoms: _392  and  _393
REMARK  170  A    between atoms: _392  and  _395
REMARK  171  A    between atoms: _398  and  _400
REMARK  172  A    between atoms: _400  and  _401
REMARK  173  A    between atoms: _400  and  _403
REMARK  174  A    between atoms: _403  and  _404
REMARK  175  A    between atoms: _406  and  _408
REMARK  176  A    between atoms: _408  and  _409
REMARK  177  A    between atoms: _408  and  _411
REMARK  178  A    between atoms: _411  and  _412
REMARK  179  A    between atoms: _422  and  _424
REMARK  180  A    between atoms: _424  and  _425
REMARK  181  A    between atoms: _427  and  _429
REMARK  182  A    between atoms: _429  and  _430
REMARK  183  A    between atoms: _429  and  _432
REMARK  184  A    between atoms: _432  and  _433
REMARK  185  A    between atoms: _433  and  _434
REMARK  186  A    between atoms: _437  and  _439
REMARK  187  A    between atoms: _439  and  _440
REMARK  188  A    between atoms: _442  and  _444
REMARK  189  A    between atoms: _444  and  _445
REMARK  190  A    between atoms: _444  and  _447
REMARK  191  A    between atoms: _447  and  _448
REMARK  192  A    between atoms: _449  and  _451
REMARK  193  A    between atoms: _451  and  _452
REMARK  194  A    between atoms: _455  and  _457
REMARK  195  A    between atoms: _457  and  _458
REMARK  196  A    between atoms: _457  and  _460
REMARK  197  A    between atoms: _460  and  _461
REMARK  198  A    between atoms: _461  and  _462
REMARK  199  A    between atoms: _462  and  _463
REMARK  200  A    between atoms: _472  and  _474
REMARK  201  A    between atoms: _474  and  _475
REMARK  202  A    between atoms: _474  and  _477
REMARK  203  A    between atoms: _477  and  _478
REMARK  204  A    between atoms: _478  and  _479
REMARK  205  A    between atoms: _479  and  _480
REMARK  206  A    between atoms: _480  and  _481
REMARK  207  A    between atoms: _485  and  _487
REMARK  208  A    between atoms: _487  and  _488
REMARK  209  A    between atoms: _487  and  _490
REMARK  210  A    between atoms: _490  and  _491
REMARK  211  A    between atoms: _496  and  _497
REMARK  212  A    between atoms: _499  and  _501
REMARK  213  A    between atoms: _501  and  _502
REMARK  214  A    between atoms: _504  and  _506
REMARK  215  A    between atoms: _506  and  _507
REMARK  216  A    between atoms: _506  and  _509
REMARK  217  A    between atoms: _509  and  _510
REMARK  218  A    between atoms: _513  and  _515
REMARK  219  A    between atoms: _515  and  _516
REMARK  220  A    between atoms: _515  and  _518
REMARK  221  A    between atoms: _518  and  _519
REMARK  222  A    between atoms: _524  and  _525
REMARK  223  A    between atoms: _527  and  _529
REMARK  224  A    between atoms: _529  and  _530
REMARK  225  A    between atoms: _529  and  _532
REMARK  226  A    between atoms: _532  and  _533
REMARK                            x       y       z     vdW  Elec       q    Type
REMARK                         _______ _______ _______ _____ _____    ______ ____
ROOT
ATOM      1  O   HOH     1       6.089  49.493   4.266  0.00  0.00    +0.000 OA
ENDROOT
TORSDOF 0
REMARK  Name = ../refined-set-2016/2vwn/2vwn_pocket.pdb
REMARK  226 active torsions:
REMARK  status: ('A' for Active; 'I' for Inactive)
REMARK    1  A    between atoms: _1  and  _5
REMARK    2  A    between atoms: _5  and  _6
REMARK    3  A    between atoms: _5  and  _8
REMARK    4  A    between atoms: _8  and  _9
REMARK    5  A    between atoms: _12  and  _14
REMARK    6  A    between atoms: _14  and  _15
REMARK    7  A    between atoms: _14  and  _17
REMARK    8  A    between atoms: _20  and  _22
REMARK    9  A    between atoms: _22  and  _23
REMARK   10  A    between atoms: _22  and  _25
REMARK   11  A    between atoms: _25  and  _26
REMARK   12  A    between atoms: _31  and  _33
REMARK   13  A    between atoms: _33  and  _34
REMARK   14  A    between atoms: _33  and  _36
REMARK   15  A    between atoms: _36  and  _37
REMARK   16  A    between atoms: _37  and  _38
REMARK   17  A    between atoms: _43  and  _45
REMARK   18  A    between atoms: _45  and  _46
REMARK   19  A    between atoms: _45  and  _48
REMARK   20  A    between atoms: _48  and  _49
REMARK   21  A    between atoms: _52  and  _54
REMARK   22  A    between atoms: _54  and  _55
REMARK   23  A    between atoms: _54  and  _57
REMARK   24  A    between atoms: _57  and  _58
REMARK   25  A    between atoms: _58  and  _59
REMARK   26  A    between atoms: _59  and  _60
REMARK   27  A    between atoms: _60  and  _61
REMARK   28  A    between atoms: _65  and  _67
REMARK   29  A    between atoms: _67  and  _68
REMARK   30  A    between atoms: _67  and  _70
REMARK   31  A    between atoms: _70  and  _71
REMARK   32  A    between atoms: _71  and  _72
REMARK   33  A    between atoms: _75  and  _77
REMARK   34  A    between atoms: _77  and  _78
REMARK   35  A    between atoms: _77  and  _80
REMARK   36  A    between atoms: _80  and  _81
REMARK   37  A    between atoms: _84  and  _86
REMARK   38  A    between atoms: _86  and  _87
REMARK   39  A    between atoms: _86  and  _89
REMARK   40  A    between atoms: _89  and  _90
REMARK   41  A    between atoms: _95  and  _96
REMARK   42  A    between atoms: _98  and  _100
REMARK   43  A    between atoms: _100  and  _101
REMARK   44  A    between atoms: _100  and  _103
REMARK   45  A    between atoms: _103  and  _104
REMARK   46  A    between atoms: _107  and  _109
REMARK   47  A    between atoms: _109  and  _110
REMARK   48  A    between atoms: _109  and  _112
REMARK   49  A    between atoms: _112  and  _113
REMARK   50  A    between atoms: _116  and  _118
REMARK   51  A    between atoms: _118  and  _119
REMARK   52  A    between atoms: _118  and  _121
REMARK   53  A    between atoms: _124  and  _126
REMARK   54  A    between atoms: _126  and  _127
REMARK   55  A    between atoms: _126  and  _129
REMARK   56  A    between atoms: _129  and  _130
REMARK   57  A    between atoms: _130  and  _131
REMARK   58  A    between atoms: _131  and  _132
REMARK   59  A    between atoms: _141  and  _143
REMARK   60  A    between atoms: _143  and  _144
REMARK   61  A    between atoms: _143  and  _146
REMARK   62  A    between atoms: _146  and  _147
REMARK   63  A    between atoms: _152  and  _154
REMARK   64  A    between atoms: _154  and  _155
REMARK   65  A    between atoms: _154  and  _157
REMARK   66  A    between atoms: _157  and  _158
REMARK   67  A    between atoms: _158  and  _159
REMARK   68  A    between atoms: _162  and  _164
REMARK   69  A    between atoms: _164  and  _165
REMARK   70  A    between atoms: _164  and  _167
REMARK   71  A    between atoms: _167  and  _168
REMARK   72  A    between atoms: _168  and  _169
REMARK   73  A    between atoms: _169  and  _170
REMARK   74  A    between atoms: _170  and  _171
REMARK   75  A    between atoms: _175  and  _177
REMARK   76  A    between atoms: _177  and  _178
REMARK   77  A    between atoms: _180  and  _182
REMARK   78  A    between atoms: _182  and  _183
REMARK   79  A    between atoms: _182  and  _185
REMARK   80  A    between atoms: _185  and  _186
REMARK   81  A    between atoms: _186  and  _187
REMARK   82  A    between atoms: _192  and  _194
REMARK   83  A    between atoms: _194  and  _195
REMARK   84  A    between atoms: _194  and  _197
REMARK   85  A    between atoms: _200  and  _202
REMARK   86  A    between atoms: _202  and  _203
REMARK   87  A    between atoms: _202  and  _205
REMARK   88  A    between atoms: _205  and  _206
REMARK   89  A    between atoms: _208  and  _210
REMARK   90  A    between atoms: _210  and  _211
REMARK   91  A    between atoms: _210  and  _213
REMARK   92  A    between atoms: _213  and  _214
REMARK   93  A    between atoms: _216  and  _218
REMARK   94  A    between atoms: _218  and  _219
REMARK   95  A    between atoms: _218  and  _221
REMARK   96  A    between atoms: _221  and  _222
REMARK   97  A    between atoms: _228  and  _230
REMARK   98  A    between atoms: _230  and  _231
REMARK   99  A    between atoms: _230  and  _233
REMARK  100  A    between atoms: _233  and  _234
REMARK  101  A    between atoms: _237  and  _239
REMARK  102  A    between atoms: _239  and  _240
REMARK  103  A    between atoms: _239  and  _242
REMARK  104  A    between atoms: _242  and  _243
REMARK  105  A    between atoms: _246  and  _248
REMARK  106  A    between atoms: _248  and  _249
REMARK  107  A    between atoms: _248  and  _251
REMARK  108  A    between atoms: _251  and  _252
REMARK  109  A    between atoms: _255  and  _257
REMARK  110  A    between atoms: _257  and  _258
REMARK  111  A    between atoms: _257  and  _260
REMARK  112  A    between atoms: _260  and  _261
REMARK  113  A    between atoms: _261  and  _262
REMARK  114  A    between atoms: _264  and  _266
REMARK  115  A    between atoms: _266  and  _267
REMARK  116  A    between atoms: _266  and  _269
REMARK  117  A    between atoms: _269  and  _270
REMARK  118  A    between atoms: _276  and  _278
REMARK  119  A    between atoms: _278  and  _279
REMARK  120  A    between atoms: _278  and  _281
REMARK  121  A    between atoms: _283  and  _285
REMARK  122  A    between atoms: _285  and  _286
REMARK  123  A    between atoms: _289  and  _291
REMARK  124  A    between atoms: _291  and  _292
REMARK  125  A    between atoms: _294  and  _296
REMARK  126  A    between atoms: _296  and  _297
REMARK  127  A    between atoms: _296  and  _299
REMARK  128  A    between atoms: _299  and  _300
REMARK  129  A    between atoms: _300  and  _301
REMARK  130  A    between atoms: _304  and  _306
REMARK  131  A    between atoms: _306  and  _307
REMARK  132  A    between atoms: _306  and  _309
REMARK  133  A    between atoms: _309  and  _310
REMARK  134  A    between atoms: _313  and  _315
REMARK  135  A    between atoms: _315  and  _316
REMARK  136  A    between atoms: _319  and  _321
REMARK  137  A    between atoms: _321  and  _322
REMARK  138  A    between atoms: _321  and  _324
REMARK  139  A    between atoms: _324  and  _325
REMARK  140  A    between atoms: _325  and  _448
REMARK  141  A    between atoms: _326  and  _328
REMARK  142  A    between atoms: _328  and  _329
REMARK  143  A    between atoms: _328  and  _331
REMARK  144  A    between atoms: _331  and  _332
REMARK  145  A    between atoms: _332  and  _333
REMARK  146  A    between atoms: _338  and  _340
REMARK  147  A    between atoms: _340  and  _341
REMARK  148  A    between atoms: _343  and  _345
REMARK  149  A    between atoms: _345  and  _346
REMARK  150  A    between atoms: _345  and  _348
REMARK  151  A    between atoms: _348  and  _349
REMARK  152  A    between atoms: _352  and  _354
REMARK  153  A    between atoms: _354  and  _355
REMARK  154  A    between atoms: _354  and  _357
REMARK  155  A    between atoms: _357  and  _358
REMARK  156  A    between atoms: _360  and  _362
REMARK  157  A    between atoms: _362  and  _363
REMARK  158  A    between atoms: _365  and  _367
REMARK  159  A    between atoms: _367  and  _368
REMARK  160  A    between atoms: _370  and  _372
REMARK  161  A    between atoms: _372  and  _373
REMARK  162  A    between atoms: _372  and  _375
REMARK  163  A    between atoms: _375  and  _376
REMARK  164  A    between atoms: _381  and  _383
REMARK  165  A    between atoms: _383  and  _384
REMARK  166  A    between atoms: _383  and  _386
REMARK  167  A    between atoms: _386  and  _387
REMARK  168  A    between atoms: _390  and  _392
REMARK  169  A    between atoms: _392  and  _393
REMARK  170  A    between atoms: _392  and  _395
REMARK  171  A    between atoms: _398  and  _400
REMARK  172  A    between atoms: _400  and  _401
REMARK  173  A    between atoms: _400  and  _403
REMARK  174  A    between atoms: _403  and  _404
REMARK  175  A    between atoms: _406  and  _408
REMARK  176  A    between atoms: _408  and  _409
REMARK  177  A    between atoms: _408  and  _411
REMARK  178  A    between atoms: _411  and  _412
REMARK  179  A    between atoms: _422  and  _424
REMARK  180  A    between atoms: _424  and  _425
REMARK  181  A    between atoms: _427  and  _429
REMARK  182  A    between atoms: _429  and  _430
REMARK  183  A    between atoms: _429  and  _432
REMARK  184  A    between atoms: _432  and  _433
REMARK  185  A    between atoms: _433  and  _434
REMARK  186  A    between atoms: _437  and  _439
REMARK  187  A    between atoms: _439  and  _440
REMARK  188  A    between atoms: _442  and  _444
REMARK  189  A    between atoms: _444  and  _445
REMARK  190  A    between atoms: _444  and  _447
REMARK  191  A    between atoms: _447  and  _448
REMARK  192  A    between atoms: _449  and  _451
REMARK  193  A    between atoms: _451  and  _452
REMARK  194  A    between atoms: _455  and  _457
REMARK  195  A    between atoms: _457  and  _458
REMARK  196  A    between atoms: _457  and  _460
REMARK  197  A    between atoms: _460  and  _461
REMARK  198  A    between atoms: _461  and  _462
REMARK  199  A    between atoms: _462  and  _463
REMARK  200  A    between atoms: _472  and  _474
REMARK  201  A    between atoms: _474  and  _475
REMARK  202  A    between atoms: _474  and  _477
REMARK  203  A    between atoms: _477  and  _478
REMARK  204  A    between atoms: _478  and  _479
REMARK  205  A    between atoms: _479  and  _480
REMARK  206  A    between atoms: _480  and  _481
REMARK  207  A    between atoms: _485  and  _487
REMARK  208  A    between atoms: _487  and  _488
REMARK  209  A    between atoms: _487  and  _490
REMARK  210  A    between atoms: _490  and  _491
REMARK  211  A    between atoms: _496  and  _497
REMARK  212  A    between atoms: _499  and  _501
REMARK  213  A    between atoms: _501  and  _502
REMARK  214  A    between atoms: _504  and  _506
REMARK  215  A    between atoms: _506  and  _507
REMARK  216  A    between atoms: _506  and  _509
REMARK  217  A    between atoms: _509  and  _510
REMARK  218  A    between atoms: _513  and  _515
REMARK  219  A    between atoms: _515  and  _516
REMARK  220  A    between atoms: _515  and  _518
REMARK  221  A    between atoms: _518  and  _519
REMARK  222  A    between atoms: _524  and  _525
REMARK  223  A    between atoms: _527  and  _529
REMARK  224  A    between atoms: _529  and  _530
REMARK  225  A    between atoms: _529  and  _532
REMARK  226  A    between atoms: _532  and  _533
REMARK                            x       y       z     vdW  Elec       q    Type
REMARK                         _______ _______ _______ _____ _____    ______ ____
ROOT
ATOM      1  O   HOH     1       6.566  60.674  -4.869  0.00  0.00    +0.000 OA
ENDROOT
TORSDOF 0
REMARK  Name = ../refined-set-2016/2vwn/2vwn_pocket.pdb
REMARK  226 active torsions:
REMARK  status: ('A' for Active; 'I' for Inactive)
REMARK    1  A    between atoms: _1  and  _5
REMARK    2  A    between atoms: _5  and  _6
REMARK    3  A    between atoms: _5  and  _8
REMARK    4  A    between atoms: _8  and  _9
REMARK    5  A    between atoms: _12  and  _14
REMARK    6  A    between atoms: _14  and  _15
REMARK    7  A    between atoms: _14  and  _17
REMARK    8  A    between atoms: _20  and  _22
REMARK    9  A    between atoms: _22  and  _23
REMARK   10  A    between atoms: _22  and  _25
REMARK   11  A    between atoms: _25  and  _26
REMARK   12  A    between atoms: _31  and  _33
REMARK   13  A    between atoms: _33  and  _34
REMARK   14  A    between atoms: _33  and  _36
REMARK   15  A    between atoms: _36  and  _37
REMARK   16  A    between atoms: _37  and  _38
REMARK   17  A    between atoms: _43  and  _45
REMARK   18  A    between atoms: _45  and  _46
REMARK   19  A    between atoms: _45  and  _48
REMARK   20  A    between atoms: _48  and  _49
REMARK   21  A    between atoms: _52  and  _54
REMARK   22  A    between atoms: _54  and  _55
REMARK   23  A    between atoms: _54  and  _57
REMARK   24  A    between atoms: _57  and  _58
REMARK   25  A    between atoms: _58  and  _59
REMARK   26  A    between atoms: _59  and  _60
REMARK   27  A    between atoms: _60  and  _61
REMARK   28  A    between atoms: _65  and  _67
REMARK   29  A    between atoms: _67  and  _68
REMARK   30  A    between atoms: _67  and  _70
REMARK   31  A    between atoms: _70  and  _71
REMARK   32  A    between atoms: _71  and  _72
REMARK   33  A    between atoms: _75  and  _77
REMARK   34  A    between atoms: _77  and  _78
REMARK   35  A    between atoms: _77  and  _80
REMARK   36  A    between atoms: _80  and  _81
REMARK   37  A    between atoms: _84  and  _86
REMARK   38  A    between atoms: _86  and  _87
REMARK   39  A    between atoms: _86  and  _89
REMARK   40  A    between atoms: _89  and  _90
REMARK   41  A    between atoms: _95  and  _96
REMARK   42  A    between atoms: _98  and  _100
REMARK   43  A    between atoms: _100  and  _101
REMARK   44  A    between atoms: _100  and  _103
REMARK   45  A    between atoms: _103  and  _104
REMARK   46  A    between atoms: _107  and  _109
REMARK   47  A    between atoms: _109  and  _110
REMARK   48  A    between atoms: _109  and  _112
REMARK   49  A    between atoms: _112  and  _113
REMARK   50  A    between atoms: _116  and  _118
REMARK   51  A    between atoms: _118  and  _119
REMARK   52  A    between atoms: _118  and  _121
REMARK   53  A    between atoms: _124  and  _126
REMARK   54  A    between atoms: _126  and  _127
REMARK   55  A    between atoms: _126  and  _129
REMARK   56  A    between atoms: _129  and  _130
REMARK   57  A    between atoms: _130  and  _131
REMARK   58  A    between atoms: _131  and  _132
REMARK   59  A    between atoms: _141  and  _143
REMARK   60  A    between atoms: _143  and  _144
REMARK   61  A    between atoms: _143  and  _146
REMARK   62  A    between atoms: _146  and  _147
REMARK   63  A    between atoms: _152  and  _154
REMARK   64  A    between atoms: _154  and  _155
REMARK   65  A    between atoms: _154  and  _157
REMARK   66  A    between atoms: _157  and  _158
REMARK   67  A    between atoms: _158  and  _159
REMARK   68  A    between atoms: _162  and  _164
REMARK   69  A    between atoms: _164  and  _165
REMARK   70  A    between atoms: _164  and  _167
REMARK   71  A    between atoms: _167  and  _168
REMARK   72  A    between atoms: _168  and  _169
REMARK   73  A    between atoms: _169  and  _170
REMARK   74  A    between atoms: _170  and  _171
REMARK   75  A    between atoms: _175  and  _177
REMARK   76  A    between atoms: _177  and  _178
REMARK   77  A    between atoms: _180  and  _182
REMARK   78  A    between atoms: _182  and  _183
REMARK   79  A    between atoms: _182  and  _185
REMARK   80  A    between atoms: _185  and  _186
REMARK   81  A    between atoms: _186  and  _187
REMARK   82  A    between atoms: _192  and  _194
REMARK   83  A    between atoms: _194  and  _195
REMARK   84  A    between atoms: _194  and  _197
REMARK   85  A    between atoms: _200  and  _202
REMARK   86  A    between atoms: _202  and  _203
REMARK   87  A    between atoms: _202  and  _205
REMARK   88  A    between atoms: _205  and  _206
REMARK   89  A    between atoms: _208  and  _210
REMARK   90  A    between atoms: _210  and  _211
REMARK   91  A    between atoms: _210  and  _213
REMARK   92  A    between atoms: _213  and  _214
REMARK   93  A    between atoms: _216  and  _218
REMARK   94  A    between atoms: _218  and  _219
REMARK   95  A    between atoms: _218  and  _221
REMARK   96  A    between atoms: _221  and  _222
REMARK   97  A    between atoms: _228  and  _230
REMARK   98  A    between atoms: _230  and  _231
REMARK   99  A    between atoms: _230  and  _233
REMARK  100  A    between atoms: _233  and  _234
REMARK  101  A    between atoms: _237  and  _239
REMARK  102  A    between atoms: _239  and  _240
REMARK  103  A    between atoms: _239  and  _242
REMARK  104  A    between atoms: _242  and  _243
REMARK  105  A    between atoms: _246  and  _248
REMARK  106  A    between atoms: _248  and  _249
REMARK  107  A    between atoms: _248  and  _251
REMARK  108  A    between atoms: _251  and  _252
REMARK  109  A    between atoms: _255  and  _257
REMARK  110  A    between atoms: _257  and  _258
REMARK  111  A    between atoms: _257  and  _260
REMARK  112  A    between atoms: _260  and  _261
REMARK  113  A    between atoms: _261  and  _262
REMARK  114  A    between atoms: _264  and  _266
REMARK  115  A    between atoms: _266  and  _267
REMARK  116  A    between atoms: _266  and  _269
REMARK  117  A    between atoms: _269  and  _270
REMARK  118  A    between atoms: _276  and  _278
REMARK  119  A    between atoms: _278  and  _279
REMARK  120  A    between atoms: _278  and  _281
REMARK  121  A    between atoms: _283  and  _285
REMARK  122  A    between atoms: _285  and  _286
REMARK  123  A    between atoms: _289  and  _291
REMARK  124  A    between atoms: _291  and  _292
REMARK  125  A    between atoms: _294  and  _296
REMARK  126  A    between atoms: _296  and  _297
REMARK  127  A    between atoms: _296  and  _299
REMARK  128  A    between atoms: _299  and  _300
REMARK  129  A    between atoms: _300  and  _301
REMARK  130  A    between atoms: _304  and  _306
REMARK  131  A    between atoms: _306  and  _307
REMARK  132  A    between atoms: _306  and  _309
REMARK  133  A    between atoms: _309  and  _310
REMARK  134  A    between atoms: _313  and  _315
REMARK  135  A    between atoms: _315  and  _316
REMARK  136  A    between atoms: _319  and  _321
REMARK  137  A    between atoms: _321  and  _322
REMARK  138  A    between atoms: _321  and  _324
REMARK  139  A    between atoms: _324  and  _325
REMARK  140  A    between atoms: _325  and  _448
REMARK  141  A    between atoms: _326  and  _328
REMARK  142  A    between atoms: _328  and  _329
REMARK  143  A    between atoms: _328  and  _331
REMARK  144  A    between atoms: _331  and  _332
REMARK  145  A    between atoms: _332  and  _333
REMARK  146  A    between atoms: _338  and  _340
REMARK  147  A    between atoms: _340  and  _341
REMARK  148  A    between atoms: _343  and  _345
REMARK  149  A    between atoms: _345  and  _346
REMARK  150  A    between atoms: _345  and  _348
REMARK  151  A    between atoms: _348  and  _349
REMARK  152  A    between atoms: _352  and  _354
REMARK  153  A    between atoms: _354  and  _355
REMARK  154  A    between atoms: _354  and  _357
REMARK  155  A    between atoms: _357  and  _358
REMARK  156  A    between atoms: _360  and  _362
REMARK  157  A    between atoms: _362  and  _363
REMARK  158  A    between atoms: _365  and  _367
REMARK  159  A    between atoms: _367  and  _368
REMARK  160  A    between atoms: _370  and  _372
REMARK  161  A    between atoms: _372  and  _373
REMARK  162  A    between atoms: _372  and  _375
REMARK  163  A    between atoms: _375  and  _376
REMARK  164  A    between atoms: _381  and  _383
REMARK  165  A    between atoms: _383  and  _384
REMARK  166  A    between atoms: _383  and  _386
REMARK  167  A    between atoms: _386  and  _387
REMARK  168  A    between atoms: _390  and  _392
REMARK  169  A    between atoms: _392  and  _393
REMARK  170  A    between atoms: _392  and  _395
REMARK  171  A    between atoms: _398  and  _400
REMARK  172  A    between atoms: _400  and  _401
REMARK  173  A    between atoms: _400  and  _403
REMARK  174  A    between atoms: _403  and  _404
REMARK  175  A    between atoms: _406  and  _408
REMARK  176  A    between atoms: _408  and  _409
REMARK  177  A    between atoms: _408  and  _411
REMARK  178  A    between atoms: _411  and  _412
REMARK  179  A    between atoms: _422  and  _424
REMARK  180  A    between atoms: _424  and  _425
REMARK  181  A    between atoms: _427  and  _429
REMARK  182  A    between atoms: _429  and  _430
REMARK  183  A    between atoms: _429  and  _432
REMARK  184  A    between atoms: _432  and  _433
REMARK  185  A    between atoms: _433  and  _434
REMARK  186  A    between atoms: _437  and  _439
REMARK  187  A    between atoms: _439  and  _440
REMARK  188  A    between atoms: _442  and  _444
REMARK  189  A    between atoms: _444  and  _445
REMARK  190  A    between atoms: _444  and  _447
REMARK  191  A    between atoms: _447  and  _448
REMARK  192  A    between atoms: _449  and  _451
REMARK  193  A    between atoms: _451  and  _452
REMARK  194  A    between atoms: _455  and  _457
REMARK  195  A    between atoms: _457  and  _458
REMARK  196  A    between atoms: _457  and  _460
REMARK  197  A    between atoms: _460  and  _461
REMARK  198  A    between atoms: _461  and  _462
REMARK  199  A    between atoms: _462  and  _463
REMARK  200  A    between atoms: _472  and  _474
REMARK  201  A    between atoms: _474  and  _475
REMARK  202  A    between atoms: _474  and  _477
REMARK  203  A    between atoms: _477  and  _478
REMARK  204  A    between atoms: _478  and  _479
REMARK  205  A    between atoms: _479  and  _480
REMARK  206  A    between atoms: _480  and  _481
REMARK  207  A    between atoms: _485  and  _487
REMARK  208  A    between atoms: _487  and  _488
REMARK  209  A    between atoms: _487  and  _490
REMARK  210  A    between atoms: _490  and  _491
REMARK  211  A    between atoms: _496  and  _497
REMARK  212  A    between atoms: _499  and  _501
REMARK  213  A    between atoms: _501  and  _502
REMARK  214  A    between atoms: _504  and  _506
REMARK  215  A    between atoms: _506  and  _507
REMARK  216  A    between atoms: _506  and  _509
REMARK  217  A    between atoms: _509  and  _510
REMARK  218  A    between atoms: _513  and  _515
REMARK  219  A    between atoms: _515  and  _516
REMARK  220  A    between atoms: _515  and  _518
REMARK  221  A    between atoms: _518  and  _519
REMARK  222  A    between atoms: _524  and  _525
REMARK  223  A    between atoms: _527  and  _529
REMARK  224  A    between atoms: _529  and  _530
REMARK  225  A    between atoms: _529  and  _532
REMARK  226  A    between atoms: _532  and  _533
REMARK                            x       y       z     vdW  Elec       q    Type
REMARK                         _______ _______ _______ _____ _____    ______ ____
ROOT
ATOM      1  O   HOH     1       4.444  58.513  -0.776  0.00  0.00    +0.000 OA
ENDROOT
TORSDOF 0
REMARK  Name = ../refined-set-2016/2vwn/2vwn_pocket.pdb
REMARK  226 active torsions:
REMARK  status: ('A' for Active; 'I' for Inactive)
REMARK    1  A    between atoms: _1  and  _5
REMARK    2  A    between atoms: _5  and  _6
REMARK    3  A    between atoms: _5  and  _8
REMARK    4  A    between atoms: _8  and  _9
REMARK    5  A    between atoms: _12  and  _14
REMARK    6  A    between atoms: _14  and  _15
REMARK    7  A    between atoms: _14  and  _17
REMARK    8  A    between atoms: _20  and  _22
REMARK    9  A    between atoms: _22  and  _23
REMARK   10  A    between atoms: _22  and  _25
REMARK   11  A    between atoms: _25  and  _26
REMARK   12  A    between atoms: _31  and  _33
REMARK   13  A    between atoms: _33  and  _34
REMARK   14  A    between atoms: _33  and  _36
REMARK   15  A    between atoms: _36  and  _37
REMARK   16  A    between atoms: _37  and  _38
REMARK   17  A    between atoms: _43  and  _45
REMARK   18  A    between atoms: _45  and  _46
REMARK   19  A    between atoms: _45  and  _48
REMARK   20  A    between atoms: _48  and  _49
REMARK   21  A    between atoms: _52  and  _54
REMARK   22  A    between atoms: _54  and  _55
REMARK   23  A    between atoms: _54  and  _57
REMARK   24  A    between atoms: _57  and  _58
REMARK   25  A    between atoms: _58  and  _59
REMARK   26  A    between atoms: _59  and  _60
REMARK   27  A    between atoms: _60  and  _61
REMARK   28  A    between atoms: _65  and  _67
REMARK   29  A    between atoms: _67  and  _68
REMARK   30  A    between atoms: _67  and  _70
REMARK   31  A    between atoms: _70  and  _71
REMARK   32  A    between atoms: _71  and  _72
REMARK   33  A    between atoms: _75  and  _77
REMARK   34  A    between atoms: _77  and  _78
REMARK   35  A    between atoms: _77  and  _80
REMARK   36  A    between atoms: _80  and  _81
REMARK   37  A    between atoms: _84  and  _86
REMARK   38  A    between atoms: _86  and  _87
REMARK   39  A    between atoms: _86  and  _89
REMARK   40  A    between atoms: _89  and  _90
REMARK   41  A    between atoms: _95  and  _96
REMARK   42  A    between atoms: _98  and  _100
REMARK   43  A    between atoms: _100  and  _101
REMARK   44  A    between atoms: _100  and  _103
REMARK   45  A    between atoms: _103  and  _104
REMARK   46  A    between atoms: _107  and  _109
REMARK   47  A    between atoms: _109  and  _110
REMARK   48  A    between atoms: _109  and  _112
REMARK   49  A    between atoms: _112  and  _113
REMARK   50  A    between atoms: _116  and  _118
REMARK   51  A    between atoms: _118  and  _119
REMARK   52  A    between atoms: _118  and  _121
REMARK   53  A    between atoms: _124  and  _126
REMARK   54  A    between atoms: _126  and  _127
REMARK   55  A    between atoms: _126  and  _129
REMARK   56  A    between atoms: _129  and  _130
REMARK   57  A    between atoms: _130  and  _131
REMARK   58  A    between atoms: _131  and  _132
REMARK   59  A    between atoms: _141  and  _143
REMARK   60  A    between atoms: _143  and  _144
REMARK   61  A    between atoms: _143  and  _146
REMARK   62  A    between atoms: _146  and  _147
REMARK   63  A    between atoms: _152  and  _154
REMARK   64  A    between atoms: _154  and  _155
REMARK   65  A    between atoms: _154  and  _157
REMARK   66  A    between atoms: _157  and  _158
REMARK   67  A    between atoms: _158  and  _159
REMARK   68  A    between atoms: _162  and  _164
REMARK   69  A    between atoms: _164  and  _165
REMARK   70  A    between atoms: _164  and  _167
REMARK   71  A    between atoms: _167  and  _168
REMARK   72  A    between atoms: _168  and  _169
REMARK   73  A    between atoms: _169  and  _170
REMARK   74  A    between atoms: _170  and  _171
REMARK   75  A    between atoms: _175  and  _177
REMARK   76  A    between atoms: _177  and  _178
REMARK   77  A    between atoms: _180  and  _182
REMARK   78  A    between atoms: _182  and  _183
REMARK   79  A    between atoms: _182  and  _185
REMARK   80  A    between atoms: _185  and  _186
REMARK   81  A    between atoms: _186  and  _187
REMARK   82  A    between atoms: _192  and  _194
REMARK   83  A    between atoms: _194  and  _195
REMARK   84  A    between atoms: _194  and  _197
REMARK   85  A    between atoms: _200  and  _202
REMARK   86  A    between atoms: _202  and  _203
REMARK   87  A    between atoms: _202  and  _205
REMARK   88  A    between atoms: _205  and  _206
REMARK   89  A    between atoms: _208  and  _210
REMARK   90  A    between atoms: _210  and  _211
REMARK   91  A    between atoms: _210  and  _213
REMARK   92  A    between atoms: _213  and  _214
REMARK   93  A    between atoms: _216  and  _218
REMARK   94  A    between atoms: _218  and  _219
REMARK   95  A    between atoms: _218  and  _221
REMARK   96  A    between atoms: _221  and  _222
REMARK   97  A    between atoms: _228  and  _230
REMARK   98  A    between atoms: _230  and  _231
REMARK   99  A    between atoms: _230  and  _233
REMARK  100  A    between atoms: _233  and  _234
REMARK  101  A    between atoms: _237  and  _239
REMARK  102  A    between atoms: _239  and  _240
REMARK  103  A    between atoms: _239  and  _242
REMARK  104  A    between atoms: _242  and  _243
REMARK  105  A    between atoms: _246  and  _248
REMARK  106  A    between atoms: _248  and  _249
REMARK  107  A    between atoms: _248  and  _251
REMARK  108  A    between atoms: _251  and  _252
REMARK  109  A    between atoms: _255  and  _257
REMARK  110  A    between atoms: _257  and  _258
REMARK  111  A    between atoms: _257  and  _260
REMARK  112  A    between atoms: _260  and  _261
REMARK  113  A    between atoms: _261  and  _262
REMARK  114  A    between atoms: _264  and  _266
REMARK  115  A    between atoms: _266  and  _267
REMARK  116  A    between atoms: _266  and  _269
REMARK  117  A    between atoms: _269  and  _270
REMARK  118  A    between atoms: _276  and  _278
REMARK  119  A    between atoms: _278  and  _279
REMARK  120  A    between atoms: _278  and  _281
REMARK  121  A    between atoms: _283  and  _285
REMARK  122  A    between atoms: _285  and  _286
REMARK  123  A    between atoms: _289  and  _291
REMARK  124  A    between atoms: _291  and  _292
REMARK  125  A    between atoms: _294  and  _296
REMARK  126  A    between atoms: _296  and  _297
REMARK  127  A    between atoms: _296  and  _299
REMARK  128  A    between atoms: _299  and  _300
REMARK  129  A    between atoms: _300  and  _301
REMARK  130  A    between atoms: _304  and  _306
REMARK  131  A    between atoms: _306  and  _307
REMARK  132  A    between atoms: _306  and  _309
REMARK  133  A    between atoms: _309  and  _310
REMARK  134  A    between atoms: _313  and  _315
REMARK  135  A    between atoms: _315  and  _316
REMARK  136  A    between atoms: _319  and  _321
REMARK  137  A    between atoms: _321  and  _322
REMARK  138  A    between atoms: _321  and  _324
REMARK  139  A    between atoms: _324  and  _325
REMARK  140  A    between atoms: _325  and  _448
REMARK  141  A    between atoms: _326  and  _328
REMARK  142  A    between atoms: _328  and  _329
REMARK  143  A    between atoms: _328  and  _331
REMARK  144  A    between atoms: _331  and  _332
REMARK  145  A    between atoms: _332  and  _333
REMARK  146  A    between atoms: _338  and  _340
REMARK  147  A    between atoms: _340  and  _341
REMARK  148  A    between atoms: _343  and  _345
REMARK  149  A    between atoms: _345  and  _346
REMARK  150  A    between atoms: _345  and  _348
REMARK  151  A    between atoms: _348  and  _349
REMARK  152  A    between atoms: _352  and  _354
REMARK  153  A    between atoms: _354  and  _355
REMARK  154  A    between atoms: _354  and  _357
REMARK  155  A    between atoms: _357  and  _358
REMARK  156  A    between atoms: _360  and  _362
REMARK  157  A    between atoms: _362  and  _363
REMARK  158  A    between atoms: _365  and  _367
REMARK  159  A    between atoms: _367  and  _368
REMARK  160  A    between atoms: _370  and  _372
REMARK  161  A    between atoms: _372  and  _373
REMARK  162  A    between atoms: _372  and  _375
REMARK  163  A    between atoms: _375  and  _376
REMARK  164  A    between atoms: _381  and  _383
REMARK  165  A    between atoms: _383  and  _384
REMARK  166  A    between atoms: _383  and  _386
REMARK  167  A    between atoms: _386  and  _387
REMARK  168  A    between atoms: _390  and  _392
REMARK  169  A    between atoms: _392  and  _393
REMARK  170  A    between atoms: _392  and  _395
REMARK  171  A    between atoms: _398  and  _400
REMARK  172  A    between atoms: _400  and  _401
REMARK  173  A    between atoms: _400  and  _403
REMARK  174  A    between atoms: _403  and  _404
REMARK  175  A    between atoms: _406  and  _408
REMARK  176  A    between atoms: _408  and  _409
REMARK  177  A    between atoms: _408  and  _411
REMARK  178  A    between atoms: _411  and  _412
REMARK  179  A    between atoms: _422  and  _424
REMARK  180  A    between atoms: _424  and  _425
REMARK  181  A    between atoms: _427  and  _429
REMARK  182  A    between atoms: _429  and  _430
REMARK  183  A    between atoms: _429  and  _432
REMARK  184  A    between atoms: _432  and  _433
REMARK  185  A    between atoms: _433  and  _434
REMARK  186  A    between atoms: _437  and  _439
REMARK  187  A    between atoms: _439  and  _440
REMARK  188  A    between atoms: _442  and  _444
REMARK  189  A    between atoms: _444  and  _445
REMARK  190  A    between atoms: _444  and  _447
REMARK  191  A    between atoms: _447  and  _448
REMARK  192  A    between atoms: _449  and  _451
REMARK  193  A    between atoms: _451  and  _452
REMARK  194  A    between atoms: _455  and  _457
REMARK  195  A    between atoms: _457  and  _458
REMARK  196  A    between atoms: _457  and  _460
REMARK  197  A    between atoms: _460  and  _461
REMARK  198  A    between atoms: _461  and  _462
REMARK  199  A    between atoms: _462  and  _463
REMARK  200  A    between atoms: _472  and  _474
REMARK  201  A    between atoms: _474  and  _475
REMARK  202  A    between atoms: _474  and  _477
REMARK  203  A    between atoms: _477  and  _478
REMARK  204  A    between atoms: _478  and  _479
REMARK  205  A    between atoms: _479  and  _480
REMARK  206  A    between atoms: _480  and  _481
REMARK  207  A    between atoms: _485  and  _487
REMARK  208  A    between atoms: _487  and  _488
REMARK  209  A    between atoms: _487  and  _490
REMARK  210  A    between atoms: _490  and  _491
REMARK  211  A    between atoms: _496  and  _497
REMARK  212  A    between atoms: _499  and  _501
REMARK  213  A    between atoms: _501  and  _502
REMARK  214  A    between atoms: _504  and  _506
REMARK  215  A    between atoms: _506  and  _507
REMARK  216  A    between atoms: _506  and  _509
REMARK  217  A    between atoms: _509  and  _510
REMARK  218  A    between atoms: _513  and  _515
REMARK  219  A    between atoms: _515  and  _516
REMARK  220  A    between atoms: _515  and  _518
REMARK  221  A    between atoms: _518  and  _519
REMARK  222  A    between atoms: _524  and  _525
REMARK  223  A    between atoms: _527  and  _529
REMARK  224  A    between atoms: _529  and  _530
REMARK  225  A    between atoms: _529  and  _532
REMARK  226  A    between atoms: _532  and  _533
REMARK                            x       y       z     vdW  Elec       q    Type
REMARK                         _______ _______ _______ _____ _____    ______ ____
ROOT
ATOM      1  O   HOH     1       1.840  56.136   0.772  0.00  0.00    +0.000 OA
ENDROOT
TORSDOF 0
REMARK  Name = ../refined-set-2016/2vwn/2vwn_pocket.pdb
REMARK  226 active torsions:
REMARK  status: ('A' for Active; 'I' for Inactive)
REMARK    1  A    between atoms: _1  and  _5
REMARK    2  A    between atoms: _5  and  _6
REMARK    3  A    between atoms: _5  and  _8
REMARK    4  A    between atoms: _8  and  _9
REMARK    5  A    between atoms: _12  and  _14
REMARK    6  A    between atoms: _14  and  _15
REMARK    7  A    between atoms: _14  and  _17
REMARK    8  A    between atoms: _20  and  _22
REMARK    9  A    between atoms: _22  and  _23
REMARK   10  A    between atoms: _22  and  _25
REMARK   11  A    between atoms: _25  and  _26
REMARK   12  A    between atoms: _31  and  _33
REMARK   13  A    between atoms: _33  and  _34
REMARK   14  A    between atoms: _33  and  _36
REMARK   15  A    between atoms: _36  and  _37
REMARK   16  A    between atoms: _37  and  _38
REMARK   17  A    between atoms: _43  and  _45
REMARK   18  A    between atoms: _45  and  _46
REMARK   19  A    between atoms: _45  and  _48
REMARK   20  A    between atoms: _48  and  _49
REMARK   21  A    between atoms: _52  and  _54
REMARK   22  A    between atoms: _54  and  _55
REMARK   23  A    between atoms: _54  and  _57
REMARK   24  A    between atoms: _57  and  _58
REMARK   25  A    between atoms: _58  and  _59
REMARK   26  A    between atoms: _59  and  _60
REMARK   27  A    between atoms: _60  and  _61
REMARK   28  A    between atoms: _65  and  _67
REMARK   29  A    between atoms: _67  and  _68
REMARK   30  A    between atoms: _67  and  _70
REMARK   31  A    between atoms: _70  and  _71
REMARK   32  A    between atoms: _71  and  _72
REMARK   33  A    between atoms: _75  and  _77
REMARK   34  A    between atoms: _77  and  _78
REMARK   35  A    between atoms: _77  and  _80
REMARK   36  A    between atoms: _80  and  _81
REMARK   37  A    between atoms: _84  and  _86
REMARK   38  A    between atoms: _86  and  _87
REMARK   39  A    between atoms: _86  and  _89
REMARK   40  A    between atoms: _89  and  _90
REMARK   41  A    between atoms: _95  and  _96
REMARK   42  A    between atoms: _98  and  _100
REMARK   43  A    between atoms: _100  and  _101
REMARK   44  A    between atoms: _100  and  _103
REMARK   45  A    between atoms: _103  and  _104
REMARK   46  A    between atoms: _107  and  _109
REMARK   47  A    between atoms: _109  and  _110
REMARK   48  A    between atoms: _109  and  _112
REMARK   49  A    between atoms: _112  and  _113
REMARK   50  A    between atoms: _116  and  _118
REMARK   51  A    between atoms: _118  and  _119
REMARK   52  A    between atoms: _118  and  _121
REMARK   53  A    between atoms: _124  and  _126
REMARK   54  A    between atoms: _126  and  _127
REMARK   55  A    between atoms: _126  and  _129
REMARK   56  A    between atoms: _129  and  _130
REMARK   57  A    between atoms: _130  and  _131
REMARK   58  A    between atoms: _131  and  _132
REMARK   59  A    between atoms: _141  and  _143
REMARK   60  A    between atoms: _143  and  _144
REMARK   61  A    between atoms: _143  and  _146
REMARK   62  A    between atoms: _146  and  _147
REMARK   63  A    between atoms: _152  and  _154
REMARK   64  A    between atoms: _154  and  _155
REMARK   65  A    between atoms: _154  and  _157
REMARK   66  A    between atoms: _157  and  _158
REMARK   67  A    between atoms: _158  and  _159
REMARK   68  A    between atoms: _162  and  _164
REMARK   69  A    between atoms: _164  and  _165
REMARK   70  A    between atoms: _164  and  _167
REMARK   71  A    between atoms: _167  and  _168
REMARK   72  A    between atoms: _168  and  _169
REMARK   73  A    between atoms: _169  and  _170
REMARK   74  A    between atoms: _170  and  _171
REMARK   75  A    between atoms: _175  and  _177
REMARK   76  A    between atoms: _177  and  _178
REMARK   77  A    between atoms: _180  and  _182
REMARK   78  A    between atoms: _182  and  _183
REMARK   79  A    between atoms: _182  and  _185
REMARK   80  A    between atoms: _185  and  _186
REMARK   81  A    between atoms: _186  and  _187
REMARK   82  A    between atoms: _192  and  _194
REMARK   83  A    between atoms: _194  and  _195
REMARK   84  A    between atoms: _194  and  _197
REMARK   85  A    between atoms: _200  and  _202
REMARK   86  A    between atoms: _202  and  _203
REMARK   87  A    between atoms: _202  and  _205
REMARK   88  A    between atoms: _205  and  _206
REMARK   89  A    between atoms: _208  and  _210
REMARK   90  A    between atoms: _210  and  _211
REMARK   91  A    between atoms: _210  and  _213
REMARK   92  A    between atoms: _213  and  _214
REMARK   93  A    between atoms: _216  and  _218
REMARK   94  A    between atoms: _218  and  _219
REMARK   95  A    between atoms: _218  and  _221
REMARK   96  A    between atoms: _221  and  _222
REMARK   97  A    between atoms: _228  and  _230
REMARK   98  A    between atoms: _230  and  _231
REMARK   99  A    between atoms: _230  and  _233
REMARK  100  A    between atoms: _233  and  _234
REMARK  101  A    between atoms: _237  and  _239
REMARK  102  A    between atoms: _239  and  _240
REMARK  103  A    between atoms: _239  and  _242
REMARK  104  A    between atoms: _242  and  _243
REMARK  105  A    between atoms: _246  and  _248
REMARK  106  A    between atoms: _248  and  _249
REMARK  107  A    between atoms: _248  and  _251
REMARK  108  A    between atoms: _251  and  _252
REMARK  109  A    between atoms: _255  and  _257
REMARK  110  A    between atoms: _257  and  _258
REMARK  111  A    between atoms: _257  and  _260
REMARK  112  A    between atoms: _260  and  _261
REMARK  113  A    between atoms: _261  and  _262
REMARK  114  A    between atoms: _264  and  _266
REMARK  115  A    between atoms: _266  and  _267
REMARK  116  A    between atoms: _266  and  _269
REMARK  117  A    between atoms: _269  and  _270
REMARK  118  A    between atoms: _276  and  _278
REMARK  119  A    between atoms: _278  and  _279
REMARK  120  A    between atoms: _278  and  _281
REMARK  121  A    between atoms: _283  and  _285
REMARK  122  A    between atoms: _285  and  _286
REMARK  123  A    between atoms: _289  and  _291
REMARK  124  A    between atoms: _291  and  _292
REMARK  125  A    between atoms: _294  and  _296
REMARK  126  A    between atoms: _296  and  _297
REMARK  127  A    between atoms: _296  and  _299
REMARK  128  A    between atoms: _299  and  _300
REMARK  129  A    between atoms: _300  and  _301
REMARK  130  A    between atoms: _304  and  _306
REMARK  131  A    between atoms: _306  and  _307
REMARK  132  A    between atoms: _306  and  _309
REMARK  133  A    between atoms: _309  and  _310
REMARK  134  A    between atoms: _313  and  _315
REMARK  135  A    between atoms: _315  and  _316
REMARK  136  A    between atoms: _319  and  _321
REMARK  137  A    between atoms: _321  and  _322
REMARK  138  A    between atoms: _321  and  _324
REMARK  139  A    between atoms: _324  and  _325
REMARK  140  A    between atoms: _325  and  _448
REMARK  141  A    between atoms: _326  and  _328
REMARK  142  A    between atoms: _328  and  _329
REMARK  143  A    between atoms: _328  and  _331
REMARK  144  A    between atoms: _331  and  _332
REMARK  145  A    between atoms: _332  and  _333
REMARK  146  A    between atoms: _338  and  _340
REMARK  147  A    between atoms: _340  and  _341
REMARK  148  A    between atoms: _343  and  _345
REMARK  149  A    between atoms: _345  and  _346
REMARK  150  A    between atoms: _345  and  _348
REMARK  151  A    between atoms: _348  and  _349
REMARK  152  A    between atoms: _352  and  _354
REMARK  153  A    between atoms: _354  and  _355
REMARK  154  A    between atoms: _354  and  _357
REMARK  155  A    between atoms: _357  and  _358
REMARK  156  A    between atoms: _360  and  _362
REMARK  157  A    between atoms: _362  and  _363
REMARK  158  A    between atoms: _365  and  _367
REMARK  159  A    between atoms: _367  and  _368
REMARK  160  A    between atoms: _370  and  _372
REMARK  161  A    between atoms: _372  and  _373
REMARK  162  A    between atoms: _372  and  _375
REMARK  163  A    between atoms: _375  and  _376
REMARK  164  A    between atoms: _381  and  _383
REMARK  165  A    between atoms: _383  and  _384
REMARK  166  A    between atoms: _383  and  _386
REMARK  167  A    between atoms: _386  and  _387
REMARK  168  A    between atoms: _390  and  _392
REMARK  169  A    between atoms: _392  and  _393
REMARK  170  A    between atoms: _392  and  _395
REMARK  171  A    between atoms: _398  and  _400
REMARK  172  A    between atoms: _400  and  _401
REMARK  173  A    between atoms: _400  and  _403
REMARK  174  A    between atoms: _403  and  _404
REMARK  175  A    between atoms: _406  and  _408
REMARK  176  A    between atoms: _408  and  _409
REMARK  177  A    between atoms: _408  and  _411
REMARK  178  A    between atoms: _411  and  _412
REMARK  179  A    between atoms: _422  and  _424
REMARK  180  A    between atoms: _424  and  _425
REMARK  181  A    between atoms: _427  and  _429
REMARK  182  A    between atoms: _429  and  _430
REMARK  183  A    between atoms: _429  and  _432
REMARK  184  A    between atoms: _432  and  _433
REMARK  185  A    between atoms: _433  and  _434
REMARK  186  A    between atoms: _437  and  _439
REMARK  187  A    between atoms: _439  and  _440
REMARK  188  A    between atoms: _442  and  _444
REMARK  189  A    between atoms: _444  and  _445
REMARK  190  A    between atoms: _444  and  _447
REMARK  191  A    between atoms: _447  and  _448
REMARK  192  A    between atoms: _449  and  _451
REMARK  193  A    between atoms: _451  and  _452
REMARK  194  A    between atoms: _455  and  _457
REMARK  195  A    between atoms: _457  and  _458
REMARK  196  A    between atoms: _457  and  _460
REMARK  197  A    between atoms: _460  and  _461
REMARK  198  A    between atoms: _461  and  _462
REMARK  199  A    between atoms: _462  and  _463
REMARK  200  A    between atoms: _472  and  _474
REMARK  201  A    between atoms: _474  and  _475
REMARK  202  A    between atoms: _474  and  _477
REMARK  203  A    between atoms: _477  and  _478
REMARK  204  A    between atoms: _478  and  _479
REMARK  205  A    between atoms: _479  and  _480
REMARK  206  A    between atoms: _480  and  _481
REMARK  207  A    between atoms: _485  and  _487
REMARK  208  A    between atoms: _487  and  _488
REMARK  209  A    between atoms: _487  and  _490
REMARK  210  A    between atoms: _490  and  _491
REMARK  211  A    between atoms: _496  and  _497
REMARK  212  A    between atoms: _499  and  _501
REMARK  213  A    between atoms: _501  and  _502
REMARK  214  A    between atoms: _504  and  _506
REMARK  215  A    between atoms: _506  and  _507
REMARK  216  A    between atoms: _506  and  _509
REMARK  217  A    between atoms: _509  and  _510
REMARK  218  A    between atoms: _513  and  _515
REMARK  219  A    between atoms: _515  and  _516
REMARK  220  A    between atoms: _515  and  _518
REMARK  221  A    between atoms: _518  and  _519
REMARK  222  A    between atoms: _524  and  _525
REMARK  223  A    between atoms: _527  and  _529
REMARK  224  A    between atoms: _529  and  _530
REMARK  225  A    between atoms: _529  and  _532
REMARK  226  A    between atoms: _532  and  _533
REMARK                            x       y       z     vdW  Elec       q    Type
REMARK                         _______ _______ _______ _____ _____    ______ ____
ROOT
ATOM      1  O   HOH     1      13.595  54.576   3.242  0.00  0.00    +0.000 OA
ENDROOT
TORSDOF 0
REMARK  Name = ../refined-set-2016/2vwn/2vwn_pocket.pdb
REMARK  226 active torsions:
REMARK  status: ('A' for Active; 'I' for Inactive)
REMARK    1  A    between atoms: _1  and  _5
REMARK    2  A    between atoms: _5  and  _6
REMARK    3  A    between atoms: _5  and  _8
REMARK    4  A    between atoms: _8  and  _9
REMARK    5  A    between atoms: _12  and  _14
REMARK    6  A    between atoms: _14  and  _15
REMARK    7  A    between atoms: _14  and  _17
REMARK    8  A    between atoms: _20  and  _22
REMARK    9  A    between atoms: _22  and  _23
REMARK   10  A    between atoms: _22  and  _25
REMARK   11  A    between atoms: _25  and  _26
REMARK   12  A    between atoms: _31  and  _33
REMARK   13  A    between atoms: _33  and  _34
REMARK   14  A    between atoms: _33  and  _36
REMARK   15  A    between atoms: _36  and  _37
REMARK   16  A    between atoms: _37  and  _38
REMARK   17  A    between atoms: _43  and  _45
REMARK   18  A    between atoms: _45  and  _46
REMARK   19  A    between atoms: _45  and  _48
REMARK   20  A    between atoms: _48  and  _49
REMARK   21  A    between atoms: _52  and  _54
REMARK   22  A    between atoms: _54  and  _55
REMARK   23  A    between atoms: _54  and  _57
REMARK   24  A    between atoms: _57  and  _58
REMARK   25  A    between atoms: _58  and  _59
REMARK   26  A    between atoms: _59  and  _60
REMARK   27  A    between atoms: _60  and  _61
REMARK   28  A    between atoms: _65  and  _67
REMARK   29  A    between atoms: _67  and  _68
REMARK   30  A    between atoms: _67  and  _70
REMARK   31  A    between atoms: _70  and  _71
REMARK   32  A    between atoms: _71  and  _72
REMARK   33  A    between atoms: _75  and  _77
REMARK   34  A    between atoms: _77  and  _78
REMARK   35  A    between atoms: _77  and  _80
REMARK   36  A    between atoms: _80  and  _81
REMARK   37  A    between atoms: _84  and  _86
REMARK   38  A    between atoms: _86  and  _87
REMARK   39  A    between atoms: _86  and  _89
REMARK   40  A    between atoms: _89  and  _90
REMARK   41  A    between atoms: _95  and  _96
REMARK   42  A    between atoms: _98  and  _100
REMARK   43  A    between atoms: _100  and  _101
REMARK   44  A    between atoms: _100  and  _103
REMARK   45  A    between atoms: _103  and  _104
REMARK   46  A    between atoms: _107  and  _109
REMARK   47  A    between atoms: _109  and  _110
REMARK   48  A    between atoms: _109  and  _112
REMARK   49  A    between atoms: _112  and  _113
REMARK   50  A    between atoms: _116  and  _118
REMARK   51  A    between atoms: _118  and  _119
REMARK   52  A    between atoms: _118  and  _121
REMARK   53  A    between atoms: _124  and  _126
REMARK   54  A    between atoms: _126  and  _127
REMARK   55  A    between atoms: _126  and  _129
REMARK   56  A    between atoms: _129  and  _130
REMARK   57  A    between atoms: _130  and  _131
REMARK   58  A    between atoms: _131  and  _132
REMARK   59  A    between atoms: _141  and  _143
REMARK   60  A    between atoms: _143  and  _144
REMARK   61  A    between atoms: _143  and  _146
REMARK   62  A    between atoms: _146  and  _147
REMARK   63  A    between atoms: _152  and  _154
REMARK   64  A    between atoms: _154  and  _155
REMARK   65  A    between atoms: _154  and  _157
REMARK   66  A    between atoms: _157  and  _158
REMARK   67  A    between atoms: _158  and  _159
REMARK   68  A    between atoms: _162  and  _164
REMARK   69  A    between atoms: _164  and  _165
REMARK   70  A    between atoms: _164  and  _167
REMARK   71  A    between atoms: _167  and  _168
REMARK   72  A    between atoms: _168  and  _169
REMARK   73  A    between atoms: _169  and  _170
REMARK   74  A    between atoms: _170  and  _171
REMARK   75  A    between atoms: _175  and  _177
REMARK   76  A    between atoms: _177  and  _178
REMARK   77  A    between atoms: _180  and  _182
REMARK   78  A    between atoms: _182  and  _183
REMARK   79  A    between atoms: _182  and  _185
REMARK   80  A    between atoms: _185  and  _186
REMARK   81  A    between atoms: _186  and  _187
REMARK   82  A    between atoms: _192  and  _194
REMARK   83  A    between atoms: _194  and  _195
REMARK   84  A    between atoms: _194  and  _197
REMARK   85  A    between atoms: _200  and  _202
REMARK   86  A    between atoms: _202  and  _203
REMARK   87  A    between atoms: _202  and  _205
REMARK   88  A    between atoms: _205  and  _206
REMARK   89  A    between atoms: _208  and  _210
REMARK   90  A    between atoms: _210  and  _211
REMARK   91  A    between atoms: _210  and  _213
REMARK   92  A    between atoms: _213  and  _214
REMARK   93  A    between atoms: _216  and  _218
REMARK   94  A    between atoms: _218  and  _219
REMARK   95  A    between atoms: _218  and  _221
REMARK   96  A    between atoms: _221  and  _222
REMARK   97  A    between atoms: _228  and  _230
REMARK   98  A    between atoms: _230  and  _231
REMARK   99  A    between atoms: _230  and  _233
REMARK  100  A    between atoms: _233  and  _234
REMARK  101  A    between atoms: _237  and  _239
REMARK  102  A    between atoms: _239  and  _240
REMARK  103  A    between atoms: _239  and  _242
REMARK  104  A    between atoms: _242  and  _243
REMARK  105  A    between atoms: _246  and  _248
REMARK  106  A    between atoms: _248  and  _249
REMARK  107  A    between atoms: _248  and  _251
REMARK  108  A    between atoms: _251  and  _252
REMARK  109  A    between atoms: _255  and  _257
REMARK  110  A    between atoms: _257  and  _258
REMARK  111  A    between atoms: _257  and  _260
REMARK  112  A    between atoms: _260  and  _261
REMARK  113  A    between atoms: _261  and  _262
REMARK  114  A    between atoms: _264  and  _266
REMARK  115  A    between atoms: _266  and  _267
REMARK  116  A    between atoms: _266  and  _269
REMARK  117  A    between atoms: _269  and  _270
REMARK  118  A    between atoms: _276  and  _278
REMARK  119  A    between atoms: _278  and  _279
REMARK  120  A    between atoms: _278  and  _281
REMARK  121  A    between atoms: _283  and  _285
REMARK  122  A    between atoms: _285  and  _286
REMARK  123  A    between atoms: _289  and  _291
REMARK  124  A    between atoms: _291  and  _292
REMARK  125  A    between atoms: _294  and  _296
REMARK  126  A    between atoms: _296  and  _297
REMARK  127  A    between atoms: _296  and  _299
REMARK  128  A    between atoms: _299  and  _300
REMARK  129  A    between atoms: _300  and  _301
REMARK  130  A    between atoms: _304  and  _306
REMARK  131  A    between atoms: _306  and  _307
REMARK  132  A    between atoms: _306  and  _309
REMARK  133  A    between atoms: _309  and  _310
REMARK  134  A    between atoms: _313  and  _315
REMARK  135  A    between atoms: _315  and  _316
REMARK  136  A    between atoms: _319  and  _321
REMARK  137  A    between atoms: _321  and  _322
REMARK  138  A    between atoms: _321  and  _324
REMARK  139  A    between atoms: _324  and  _325
REMARK  140  A    between atoms: _325  and  _448
REMARK  141  A    between atoms: _326  and  _328
REMARK  142  A    between atoms: _328  and  _329
REMARK  143  A    between atoms: _328  and  _331
REMARK  144  A    between atoms: _331  and  _332
REMARK  145  A    between atoms: _332  and  _333
REMARK  146  A    between atoms: _338  and  _340
REMARK  147  A    between atoms: _340  and  _341
REMARK  148  A    between atoms: _343  and  _345
REMARK  149  A    between atoms: _345  and  _346
REMARK  150  A    between atoms: _345  and  _348
REMARK  151  A    between atoms: _348  and  _349
REMARK  152  A    between atoms: _352  and  _354
REMARK  153  A    between atoms: _354  and  _355
REMARK  154  A    between atoms: _354  and  _357
REMARK  155  A    between atoms: _357  and  _358
REMARK  156  A    between atoms: _360  and  _362
REMARK  157  A    between atoms: _362  and  _363
REMARK  158  A    between atoms: _365  and  _367
REMARK  159  A    between atoms: _367  and  _368
REMARK  160  A    between atoms: _370  and  _372
REMARK  161  A    between atoms: _372  and  _373
REMARK  162  A    between atoms: _372  and  _375
REMARK  163  A    between atoms: _375  and  _376
REMARK  164  A    between atoms: _381  and  _383
REMARK  165  A    between atoms: _383  and  _384
REMARK  166  A    between atoms: _383  and  _386
REMARK  167  A    between atoms: _386  and  _387
REMARK  168  A    between atoms: _390  and  _392
REMARK  169  A    between atoms: _392  and  _393
REMARK  170  A    between atoms: _392  and  _395
REMARK  171  A    between atoms: _398  and  _400
REMARK  172  A    between atoms: _400  and  _401
REMARK  173  A    between atoms: _400  and  _403
REMARK  174  A    between atoms: _403  and  _404
REMARK  175  A    between atoms: _406  and  _408
REMARK  176  A    between atoms: _408  and  _409
REMARK  177  A    between atoms: _408  and  _411
REMARK  178  A    between atoms: _411  and  _412
REMARK  179  A    between atoms: _422  and  _424
REMARK  180  A    between atoms: _424  and  _425
REMARK  181  A    between atoms: _427  and  _429
REMARK  182  A    between atoms: _429  and  _430
REMARK  183  A    between atoms: _429  and  _432
REMARK  184  A    between atoms: _432  and  _433
REMARK  185  A    between atoms: _433  and  _434
REMARK  186  A    between atoms: _437  and  _439
REMARK  187  A    between atoms: _439  and  _440
REMARK  188  A    between atoms: _442  and  _444
REMARK  189  A    between atoms: _444  and  _445
REMARK  190  A    between atoms: _444  and  _447
REMARK  191  A    between atoms: _447  and  _448
REMARK  192  A    between atoms: _449  and  _451
REMARK  193  A    between atoms: _451  and  _452
REMARK  194  A    between atoms: _455  and  _457
REMARK  195  A    between atoms: _457  and  _458
REMARK  196  A    between atoms: _457  and  _460
REMARK  197  A    between atoms: _460  and  _461
REMARK  198  A    between atoms: _461  and  _462
REMARK  199  A    between atoms: _462  and  _463
REMARK  200  A    between atoms: _472  and  _474
REMARK  201  A    between atoms: _474  and  _475
REMARK  202  A    between atoms: _474  and  _477
REMARK  203  A    between atoms: _477  and  _478
REMARK  204  A    between atoms: _478  and  _479
REMARK  205  A    between atoms: _479  and  _480
REMARK  206  A    between atoms: _480  and  _481
REMARK  207  A    between atoms: _485  and  _487
REMARK  208  A    between atoms: _487  and  _488
REMARK  209  A    between atoms: _487  and  _490
REMARK  210  A    between atoms: _490  and  _491
REMARK  211  A    between atoms: _496  and  _497
REMARK  212  A    between atoms: _499  and  _501
REMARK  213  A    between atoms: _501  and  _502
REMARK  214  A    between atoms: _504  and  _506
REMARK  215  A    between atoms: _506  and  _507
REMARK  216  A    between atoms: _506  and  _509
REMARK  217  A    between atoms: _509  and  _510
REMARK  218  A    between atoms: _513  and  _515
REMARK  219  A    between atoms: _515  and  _516
REMARK  220  A    between atoms: _515  and  _518
REMARK  221  A    between atoms: _518  and  _519
REMARK  222  A    between atoms: _524  and  _525
REMARK  223  A    between atoms: _527  and  _529
REMARK  224  A    between atoms: _529  and  _530
REMARK  225  A    between atoms: _529  and  _532
REMARK  226  A    between atoms: _532  and  _533
REMARK                            x       y       z     vdW  Elec       q    Type
REMARK                         _______ _______ _______ _____ _____    ______ ____
ROOT
ATOM      1  O   HOH     1      11.061  62.979  -0.895  0.00  0.00    +0.000 OA
ENDROOT
TORSDOF 0
REMARK  Name = ../refined-set-2016/2vwn/2vwn_pocket.pdb
REMARK  226 active torsions:
REMARK  status: ('A' for Active; 'I' for Inactive)
REMARK    1  A    between atoms: _1  and  _5
REMARK    2  A    between atoms: _5  and  _6
REMARK    3  A    between atoms: _5  and  _8
REMARK    4  A    between atoms: _8  and  _9
REMARK    5  A    between atoms: _12  and  _14
REMARK    6  A    between atoms: _14  and  _15
REMARK    7  A    between atoms: _14  and  _17
REMARK    8  A    between atoms: _20  and  _22
REMARK    9  A    between atoms: _22  and  _23
REMARK   10  A    between atoms: _22  and  _25
REMARK   11  A    between atoms: _25  and  _26
REMARK   12  A    between atoms: _31  and  _33
REMARK   13  A    between atoms: _33  and  _34
REMARK   14  A    between atoms: _33  and  _36
REMARK   15  A    between atoms: _36  and  _37
REMARK   16  A    between atoms: _37  and  _38
REMARK   17  A    between atoms: _43  and  _45
REMARK   18  A    between atoms: _45  and  _46
REMARK   19  A    between atoms: _45  and  _48
REMARK   20  A    between atoms: _48  and  _49
REMARK   21  A    between atoms: _52  and  _54
REMARK   22  A    between atoms: _54  and  _55
REMARK   23  A    between atoms: _54  and  _57
REMARK   24  A    between atoms: _57  and  _58
REMARK   25  A    between atoms: _58  and  _59
REMARK   26  A    between atoms: _59  and  _60
REMARK   27  A    between atoms: _60  and  _61
REMARK   28  A    between atoms: _65  and  _67
REMARK   29  A    between atoms: _67  and  _68
REMARK   30  A    between atoms: _67  and  _70
REMARK   31  A    between atoms: _70  and  _71
REMARK   32  A    between atoms: _71  and  _72
REMARK   33  A    between atoms: _75  and  _77
REMARK   34  A    between atoms: _77  and  _78
REMARK   35  A    between atoms: _77  and  _80
REMARK   36  A    between atoms: _80  and  _81
REMARK   37  A    between atoms: _84  and  _86
REMARK   38  A    between atoms: _86  and  _87
REMARK   39  A    between atoms: _86  and  _89
REMARK   40  A    between atoms: _89  and  _90
REMARK   41  A    between atoms: _95  and  _96
REMARK   42  A    between atoms: _98  and  _100
REMARK   43  A    between atoms: _100  and  _101
REMARK   44  A    between atoms: _100  and  _103
REMARK   45  A    between atoms: _103  and  _104
REMARK   46  A    between atoms: _107  and  _109
REMARK   47  A    between atoms: _109  and  _110
REMARK   48  A    between atoms: _109  and  _112
REMARK   49  A    between atoms: _112  and  _113
REMARK   50  A    between atoms: _116  and  _118
REMARK   51  A    between atoms: _118  and  _119
REMARK   52  A    between atoms: _118  and  _121
REMARK   53  A    between atoms: _124  and  _126
REMARK   54  A    between atoms: _126  and  _127
REMARK   55  A    between atoms: _126  and  _129
REMARK   56  A    between atoms: _129  and  _130
REMARK   57  A    between atoms: _130  and  _131
REMARK   58  A    between atoms: _131  and  _132
REMARK   59  A    between atoms: _141  and  _143
REMARK   60  A    between atoms: _143  and  _144
REMARK   61  A    between atoms: _143  and  _146
REMARK   62  A    between atoms: _146  and  _147
REMARK   63  A    between atoms: _152  and  _154
REMARK   64  A    between atoms: _154  and  _155
REMARK   65  A    between atoms: _154  and  _157
REMARK   66  A    between atoms: _157  and  _158
REMARK   67  A    between atoms: _158  and  _159
REMARK   68  A    between atoms: _162  and  _164
REMARK   69  A    between atoms: _164  and  _165
REMARK   70  A    between atoms: _164  and  _167
REMARK   71  A    between atoms: _167  and  _168
REMARK   72  A    between atoms: _168  and  _169
REMARK   73  A    between atoms: _169  and  _170
REMARK   74  A    between atoms: _170  and  _171
REMARK   75  A    between atoms: _175  and  _177
REMARK   76  A    between atoms: _177  and  _178
REMARK   77  A    between atoms: _180  and  _182
REMARK   78  A    between atoms: _182  and  _183
REMARK   79  A    between atoms: _182  and  _185
REMARK   80  A    between atoms: _185  and  _186
REMARK   81  A    between atoms: _186  and  _187
REMARK   82  A    between atoms: _192  and  _194
REMARK   83  A    between atoms: _194  and  _195
REMARK   84  A    between atoms: _194  and  _197
REMARK   85  A    between atoms: _200  and  _202
REMARK   86  A    between atoms: _202  and  _203
REMARK   87  A    between atoms: _202  and  _205
REMARK   88  A    between atoms: _205  and  _206
REMARK   89  A    between atoms: _208  and  _210
REMARK   90  A    between atoms: _210  and  _211
REMARK   91  A    between atoms: _210  and  _213
REMARK   92  A    between atoms: _213  and  _214
REMARK   93  A    between atoms: _216  and  _218
REMARK   94  A    between atoms: _218  and  _219
REMARK   95  A    between atoms: _218  and  _221
REMARK   96  A    between atoms: _221  and  _222
REMARK   97  A    between atoms: _228  and  _230
REMARK   98  A    between atoms: _230  and  _231
REMARK   99  A    between atoms: _230  and  _233
REMARK  100  A    between atoms: _233  and  _234
REMARK  101  A    between atoms: _237  and  _239
REMARK  102  A    between atoms: _239  and  _240
REMARK  103  A    between atoms: _239  and  _242
REMARK  104  A    between atoms: _242  and  _243
REMARK  105  A    between atoms: _246  and  _248
REMARK  106  A    between atoms: _248  and  _249
REMARK  107  A    between atoms: _248  and  _251
REMARK  108  A    between atoms: _251  and  _252
REMARK  109  A    between atoms: _255  and  _257
REMARK  110  A    between atoms: _257  and  _258
REMARK  111  A    between atoms: _257  and  _260
REMARK  112  A    between atoms: _260  and  _261
REMARK  113  A    between atoms: _261  and  _262
REMARK  114  A    between atoms: _264  and  _266
REMARK  115  A    between atoms: _266  and  _267
REMARK  116  A    between atoms: _266  and  _269
REMARK  117  A    between atoms: _269  and  _270
REMARK  118  A    between atoms: _276  and  _278
REMARK  119  A    between atoms: _278  and  _279
REMARK  120  A    between atoms: _278  and  _281
REMARK  121  A    between atoms: _283  and  _285
REMARK  122  A    between atoms: _285  and  _286
REMARK  123  A    between atoms: _289  and  _291
REMARK  124  A    between atoms: _291  and  _292
REMARK  125  A    between atoms: _294  and  _296
REMARK  126  A    between atoms: _296  and  _297
REMARK  127  A    between atoms: _296  and  _299
REMARK  128  A    between atoms: _299  and  _300
REMARK  129  A    between atoms: _300  and  _301
REMARK  130  A    between atoms: _304  and  _306
REMARK  131  A    between atoms: _306  and  _307
REMARK  132  A    between atoms: _306  and  _309
REMARK  133  A    between atoms: _309  and  _310
REMARK  134  A    between atoms: _313  and  _315
REMARK  135  A    between atoms: _315  and  _316
REMARK  136  A    between atoms: _319  and  _321
REMARK  137  A    between atoms: _321  and  _322
REMARK  138  A    between atoms: _321  and  _324
REMARK  139  A    between atoms: _324  and  _325
REMARK  140  A    between atoms: _325  and  _448
REMARK  141  A    between atoms: _326  and  _328
REMARK  142  A    between atoms: _328  and  _329
REMARK  143  A    between atoms: _328  and  _331
REMARK  144  A    between atoms: _331  and  _332
REMARK  145  A    between atoms: _332  and  _333
REMARK  146  A    between atoms: _338  and  _340
REMARK  147  A    between atoms: _340  and  _341
REMARK  148  A    between atoms: _343  and  _345
REMARK  149  A    between atoms: _345  and  _346
REMARK  150  A    between atoms: _345  and  _348
REMARK  151  A    between atoms: _348  and  _349
REMARK  152  A    between atoms: _352  and  _354
REMARK  153  A    between atoms: _354  and  _355
REMARK  154  A    between atoms: _354  and  _357
REMARK  155  A    between atoms: _357  and  _358
REMARK  156  A    between atoms: _360  and  _362
REMARK  157  A    between atoms: _362  and  _363
REMARK  158  A    between atoms: _365  and  _367
REMARK  159  A    between atoms: _367  and  _368
REMARK  160  A    between atoms: _370  and  _372
REMARK  161  A    between atoms: _372  and  _373
REMARK  162  A    between atoms: _372  and  _375
REMARK  163  A    between atoms: _375  and  _376
REMARK  164  A    between atoms: _381  and  _383
REMARK  165  A    between atoms: _383  and  _384
REMARK  166  A    between atoms: _383  and  _386
REMARK  167  A    between atoms: _386  and  _387
REMARK  168  A    between atoms: _390  and  _392
REMARK  169  A    between atoms: _392  and  _393
REMARK  170  A    between atoms: _392  and  _395
REMARK  171  A    between atoms: _398  and  _400
REMARK  172  A    between atoms: _400  and  _401
REMARK  173  A    between atoms: _400  and  _403
REMARK  174  A    between atoms: _403  and  _404
REMARK  175  A    between atoms: _406  and  _408
REMARK  176  A    between atoms: _408  and  _409
REMARK  177  A    between atoms: _408  and  _411
REMARK  178  A    between atoms: _411  and  _412
REMARK  179  A    between atoms: _422  and  _424
REMARK  180  A    between atoms: _424  and  _425
REMARK  181  A    between atoms: _427  and  _429
REMARK  182  A    between atoms: _429  and  _430
REMARK  183  A    between atoms: _429  and  _432
REMARK  184  A    between atoms: _432  and  _433
REMARK  185  A    between atoms: _433  and  _434
REMARK  186  A    between atoms: _437  and  _439
REMARK  187  A    between atoms: _439  and  _440
REMARK  188  A    between atoms: _442  and  _444
REMARK  189  A    between atoms: _444  and  _445
REMARK  190  A    between atoms: _444  and  _447
REMARK  191  A    between atoms: _447  and  _448
REMARK  192  A    between atoms: _449  and  _451
REMARK  193  A    between atoms: _451  and  _452
REMARK  194  A    between atoms: _455  and  _457
REMARK  195  A    between atoms: _457  and  _458
REMARK  196  A    between atoms: _457  and  _460
REMARK  197  A    between atoms: _460  and  _461
REMARK  198  A    between atoms: _461  and  _462
REMARK  199  A    between atoms: _462  and  _463
REMARK  200  A    between atoms: _472  and  _474
REMARK  201  A    between atoms: _474  and  _475
REMARK  202  A    between atoms: _474  and  _477
REMARK  203  A    between atoms: _477  and  _478
REMARK  204  A    between atoms: _478  and  _479
REMARK  205  A    between atoms: _479  and  _480
REMARK  206  A    between atoms: _480  and  _481
REMARK  207  A    between atoms: _485  and  _487
REMARK  208  A    between atoms: _487  and  _488
REMARK  209  A    between atoms: _487  and  _490
REMARK  210  A    between atoms: _490  and  _491
REMARK  211  A    between atoms: _496  and  _497
REMARK  212  A    between atoms: _499  and  _501
REMARK  213  A    between atoms: _501  and  _502
REMARK  214  A    between atoms: _504  and  _506
REMARK  215  A    between atoms: _506  and  _507
REMARK  216  A    between atoms: _506  and  _509
REMARK  217  A    between atoms: _509  and  _510
REMARK  218  A    between atoms: _513  and  _515
REMARK  219  A    between atoms: _515  and  _516
REMARK  220  A    between atoms: _515  and  _518
REMARK  221  A    between atoms: _518  and  _519
REMARK  222  A    between atoms: _524  and  _525
REMARK  223  A    between atoms: _527  and  _529
REMARK  224  A    between atoms: _529  and  _530
REMARK  225  A    between atoms: _529  and  _532
REMARK  226  A    between atoms: _532  and  _533
REMARK                            x       y       z     vdW  Elec       q    Type
REMARK                         _______ _______ _______ _____ _____    ______ ____
ROOT
ATOM      1  O   HOH     1       9.916  71.479   3.975  0.00  0.00    +0.000 OA
ENDROOT
TORSDOF 0
REMARK  Name = ../refined-set-2016/2vwn/2vwn_pocket.pdb
REMARK  226 active torsions:
REMARK  status: ('A' for Active; 'I' for Inactive)
REMARK    1  A    between atoms: _1  and  _5
REMARK    2  A    between atoms: _5  and  _6
REMARK    3  A    between atoms: _5  and  _8
REMARK    4  A    between atoms: _8  and  _9
REMARK    5  A    between atoms: _12  and  _14
REMARK    6  A    between atoms: _14  and  _15
REMARK    7  A    between atoms: _14  and  _17
REMARK    8  A    between atoms: _20  and  _22
REMARK    9  A    between atoms: _22  and  _23
REMARK   10  A    between atoms: _22  and  _25
REMARK   11  A    between atoms: _25  and  _26
REMARK   12  A    between atoms: _31  and  _33
REMARK   13  A    between atoms: _33  and  _34
REMARK   14  A    between atoms: _33  and  _36
REMARK   15  A    between atoms: _36  and  _37
REMARK   16  A    between atoms: _37  and  _38
REMARK   17  A    between atoms: _43  and  _45
REMARK   18  A    between atoms: _45  and  _46
REMARK   19  A    between atoms: _45  and  _48
REMARK   20  A    between atoms: _48  and  _49
REMARK   21  A    between atoms: _52  and  _54
REMARK   22  A    between atoms: _54  and  _55
REMARK   23  A    between atoms: _54  and  _57
REMARK   24  A    between atoms: _57  and  _58
REMARK   25  A    between atoms: _58  and  _59
REMARK   26  A    between atoms: _59  and  _60
REMARK   27  A    between atoms: _60  and  _61
REMARK   28  A    between atoms: _65  and  _67
REMARK   29  A    between atoms: _67  and  _68
REMARK   30  A    between atoms: _67  and  _70
REMARK   31  A    between atoms: _70  and  _71
REMARK   32  A    between atoms: _71  and  _72
REMARK   33  A    between atoms: _75  and  _77
REMARK   34  A    between atoms: _77  and  _78
REMARK   35  A    between atoms: _77  and  _80
REMARK   36  A    between atoms: _80  and  _81
REMARK   37  A    between atoms: _84  and  _86
REMARK   38  A    between atoms: _86  and  _87
REMARK   39  A    between atoms: _86  and  _89
REMARK   40  A    between atoms: _89  and  _90
REMARK   41  A    between atoms: _95  and  _96
REMARK   42  A    between atoms: _98  and  _100
REMARK   43  A    between atoms: _100  and  _101
REMARK   44  A    between atoms: _100  and  _103
REMARK   45  A    between atoms: _103  and  _104
REMARK   46  A    between atoms: _107  and  _109
REMARK   47  A    between atoms: _109  and  _110
REMARK   48  A    between atoms: _109  and  _112
REMARK   49  A    between atoms: _112  and  _113
REMARK   50  A    between atoms: _116  and  _118
REMARK   51  A    between atoms: _118  and  _119
REMARK   52  A    between atoms: _118  and  _121
REMARK   53  A    between atoms: _124  and  _126
REMARK   54  A    between atoms: _126  and  _127
REMARK   55  A    between atoms: _126  and  _129
REMARK   56  A    between atoms: _129  and  _130
REMARK   57  A    between atoms: _130  and  _131
REMARK   58  A    between atoms: _131  and  _132
REMARK   59  A    between atoms: _141  and  _143
REMARK   60  A    between atoms: _143  and  _144
REMARK   61  A    between atoms: _143  and  _146
REMARK   62  A    between atoms: _146  and  _147
REMARK   63  A    between atoms: _152  and  _154
REMARK   64  A    between atoms: _154  and  _155
REMARK   65  A    between atoms: _154  and  _157
REMARK   66  A    between atoms: _157  and  _158
REMARK   67  A    between atoms: _158  and  _159
REMARK   68  A    between atoms: _162  and  _164
REMARK   69  A    between atoms: _164  and  _165
REMARK   70  A    between atoms: _164  and  _167
REMARK   71  A    between atoms: _167  and  _168
REMARK   72  A    between atoms: _168  and  _169
REMARK   73  A    between atoms: _169  and  _170
REMARK   74  A    between atoms: _170  and  _171
REMARK   75  A    between atoms: _175  and  _177
REMARK   76  A    between atoms: _177  and  _178
REMARK   77  A    between atoms: _180  and  _182
REMARK   78  A    between atoms: _182  and  _183
REMARK   79  A    between atoms: _182  and  _185
REMARK   80  A    between atoms: _185  and  _186
REMARK   81  A    between atoms: _186  and  _187
REMARK   82  A    between atoms: _192  and  _194
REMARK   83  A    between atoms: _194  and  _195
REMARK   84  A    between atoms: _194  and  _197
REMARK   85  A    between atoms: _200  and  _202
REMARK   86  A    between atoms: _202  and  _203
REMARK   87  A    between atoms: _202  and  _205
REMARK   88  A    between atoms: _205  and  _206
REMARK   89  A    between atoms: _208  and  _210
REMARK   90  A    between atoms: _210  and  _211
REMARK   91  A    between atoms: _210  and  _213
REMARK   92  A    between atoms: _213  and  _214
REMARK   93  A    between atoms: _216  and  _218
REMARK   94  A    between atoms: _218  and  _219
REMARK   95  A    between atoms: _218  and  _221
REMARK   96  A    between atoms: _221  and  _222
REMARK   97  A    between atoms: _228  and  _230
REMARK   98  A    between atoms: _230  and  _231
REMARK   99  A    between atoms: _230  and  _233
REMARK  100  A    between atoms: _233  and  _234
REMARK  101  A    between atoms: _237  and  _239
REMARK  102  A    between atoms: _239  and  _240
REMARK  103  A    between atoms: _239  and  _242
REMARK  104  A    between atoms: _242  and  _243
REMARK  105  A    between atoms: _246  and  _248
REMARK  106  A    between atoms: _248  and  _249
REMARK  107  A    between atoms: _248  and  _251
REMARK  108  A    between atoms: _251  and  _252
REMARK  109  A    between atoms: _255  and  _257
REMARK  110  A    between atoms: _257  and  _258
REMARK  111  A    between atoms: _257  and  _260
REMARK  112  A    between atoms: _260  and  _261
REMARK  113  A    between atoms: _261  and  _262
REMARK  114  A    between atoms: _264  and  _266
REMARK  115  A    between atoms: _266  and  _267
REMARK  116  A    between atoms: _266  and  _269
REMARK  117  A    between atoms: _269  and  _270
REMARK  118  A    between atoms: _276  and  _278
REMARK  119  A    between atoms: _278  and  _279
REMARK  120  A    between atoms: _278  and  _281
REMARK  121  A    between atoms: _283  and  _285
REMARK  122  A    between atoms: _285  and  _286
REMARK  123  A    between atoms: _289  and  _291
REMARK  124  A    between atoms: _291  and  _292
REMARK  125  A    between atoms: _294  and  _296
REMARK  126  A    between atoms: _296  and  _297
REMARK  127  A    between atoms: _296  and  _299
REMARK  128  A    between atoms: _299  and  _300
REMARK  129  A    between atoms: _300  and  _301
REMARK  130  A    between atoms: _304  and  _306
REMARK  131  A    between atoms: _306  and  _307
REMARK  132  A    between atoms: _306  and  _309
REMARK  133  A    between atoms: _309  and  _310
REMARK  134  A    between atoms: _313  and  _315
REMARK  135  A    between atoms: _315  and  _316
REMARK  136  A    between atoms: _319  and  _321
REMARK  137  A    between atoms: _321  and  _322
REMARK  138  A    between atoms: _321  and  _324
REMARK  139  A    between atoms: _324  and  _325
REMARK  140  A    between atoms: _325  and  _448
REMARK  141  A    between atoms: _326  and  _328
REMARK  142  A    between atoms: _328  and  _329
REMARK  143  A    between atoms: _328  and  _331
REMARK  144  A    between atoms: _331  and  _332
REMARK  145  A    between atoms: _332  and  _333
REMARK  146  A    between atoms: _338  and  _340
REMARK  147  A    between atoms: _340  and  _341
REMARK  148  A    between atoms: _343  and  _345
REMARK  149  A    between atoms: _345  and  _346
REMARK  150  A    between atoms: _345  and  _348
REMARK  151  A    between atoms: _348  and  _349
REMARK  152  A    between atoms: _352  and  _354
REMARK  153  A    between atoms: _354  and  _355
REMARK  154  A    between atoms: _354  and  _357
REMARK  155  A    between atoms: _357  and  _358
REMARK  156  A    between atoms: _360  and  _362
REMARK  157  A    between atoms: _362  and  _363
REMARK  158  A    between atoms: _365  and  _367
REMARK  159  A    between atoms: _367  and  _368
REMARK  160  A    between atoms: _370  and  _372
REMARK  161  A    between atoms: _372  and  _373
REMARK  162  A    between atoms: _372  and  _375
REMARK  163  A    between atoms: _375  and  _376
REMARK  164  A    between atoms: _381  and  _383
REMARK  165  A    between atoms: _383  and  _384
REMARK  166  A    between atoms: _383  and  _386
REMARK  167  A    between atoms: _386  and  _387
REMARK  168  A    between atoms: _390  and  _392
REMARK  169  A    between atoms: _392  and  _393
REMARK  170  A    between atoms: _392  and  _395
REMARK  171  A    between atoms: _398  and  _400
REMARK  172  A    between atoms: _400  and  _401
REMARK  173  A    between atoms: _400  and  _403
REMARK  174  A    between atoms: _403  and  _404
REMARK  175  A    between atoms: _406  and  _408
REMARK  176  A    between atoms: _408  and  _409
REMARK  177  A    between atoms: _408  and  _411
REMARK  178  A    between atoms: _411  and  _412
REMARK  179  A    between atoms: _422  and  _424
REMARK  180  A    between atoms: _424  and  _425
REMARK  181  A    between atoms: _427  and  _429
REMARK  182  A    between atoms: _429  and  _430
REMARK  183  A    between atoms: _429  and  _432
REMARK  184  A    between atoms: _432  and  _433
REMARK  185  A    between atoms: _433  and  _434
REMARK  186  A    between atoms: _437  and  _439
REMARK  187  A    between atoms: _439  and  _440
REMARK  188  A    between atoms: _442  and  _444
REMARK  189  A    between atoms: _444  and  _445
REMARK  190  A    between atoms: _444  and  _447
REMARK  191  A    between atoms: _447  and  _448
REMARK  192  A    between atoms: _449  and  _451
REMARK  193  A    between atoms: _451  and  _452
REMARK  194  A    between atoms: _455  and  _457
REMARK  195  A    between atoms: _457  and  _458
REMARK  196  A    between atoms: _457  and  _460
REMARK  197  A    between atoms: _460  and  _461
REMARK  198  A    between atoms: _461  and  _462
REMARK  199  A    between atoms: _462  and  _463
REMARK  200  A    between atoms: _472  and  _474
REMARK  201  A    between atoms: _474  and  _475
REMARK  202  A    between atoms: _474  and  _477
REMARK  203  A    between atoms: _477  and  _478
REMARK  204  A    between atoms: _478  and  _479
REMARK  205  A    between atoms: _479  and  _480
REMARK  206  A    between atoms: _480  and  _481
REMARK  207  A    between atoms: _485  and  _487
REMARK  208  A    between atoms: _487  and  _488
REMARK  209  A    between atoms: _487  and  _490
REMARK  210  A    between atoms: _490  and  _491
REMARK  211  A    between atoms: _496  and  _497
REMARK  212  A    between atoms: _499  and  _501
REMARK  213  A    between atoms: _501  and  _502
REMARK  214  A    between atoms: _504  and  _506
REMARK  215  A    between atoms: _506  and  _507
REMARK  216  A    between atoms: _506  and  _509
REMARK  217  A    between atoms: _509  and  _510
REMARK  218  A    between atoms: _513  and  _515
REMARK  219  A    between atoms: _515  and  _516
REMARK  220  A    between atoms: _515  and  _518
REMARK  221  A    between atoms: _518  and  _519
REMARK  222  A    between atoms: _524  and  _525
REMARK  223  A    between atoms: _527  and  _529
REMARK  224  A    between atoms: _529  and  _530
REMARK  225  A    between atoms: _529  and  _532
REMARK  226  A    between atoms: _532  and  _533
REMARK                            x       y       z     vdW  Elec       q    Type
REMARK                         _______ _______ _______ _____ _____    ______ ____
ROOT
ATOM      1  O   HOH     1       7.290  70.950   4.961  0.00  0.00    +0.000 OA
ENDROOT
TORSDOF 0
REMARK  Name = ../refined-set-2016/2vwn/2vwn_pocket.pdb
REMARK  226 active torsions:
REMARK  status: ('A' for Active; 'I' for Inactive)
REMARK    1  A    between atoms: _1  and  _5
REMARK    2  A    between atoms: _5  and  _6
REMARK    3  A    between atoms: _5  and  _8
REMARK    4  A    between atoms: _8  and  _9
REMARK    5  A    between atoms: _12  and  _14
REMARK    6  A    between atoms: _14  and  _15
REMARK    7  A    between atoms: _14  and  _17
REMARK    8  A    between atoms: _20  and  _22
REMARK    9  A    between atoms: _22  and  _23
REMARK   10  A    between atoms: _22  and  _25
REMARK   11  A    between atoms: _25  and  _26
REMARK   12  A    between atoms: _31  and  _33
REMARK   13  A    between atoms: _33  and  _34
REMARK   14  A    between atoms: _33  and  _36
REMARK   15  A    between atoms: _36  and  _37
REMARK   16  A    between atoms: _37  and  _38
REMARK   17  A    between atoms: _43  and  _45
REMARK   18  A    between atoms: _45  and  _46
REMARK   19  A    between atoms: _45  and  _48
REMARK   20  A    between atoms: _48  and  _49
REMARK   21  A    between atoms: _52  and  _54
REMARK   22  A    between atoms: _54  and  _55
REMARK   23  A    between atoms: _54  and  _57
REMARK   24  A    between atoms: _57  and  _58
REMARK   25  A    between atoms: _58  and  _59
REMARK   26  A    between atoms: _59  and  _60
REMARK   27  A    between atoms: _60  and  _61
REMARK   28  A    between atoms: _65  and  _67
REMARK   29  A    between atoms: _67  and  _68
REMARK   30  A    between atoms: _67  and  _70
REMARK   31  A    between atoms: _70  and  _71
REMARK   32  A    between atoms: _71  and  _72
REMARK   33  A    between atoms: _75  and  _77
REMARK   34  A    between atoms: _77  and  _78
REMARK   35  A    between atoms: _77  and  _80
REMARK   36  A    between atoms: _80  and  _81
REMARK   37  A    between atoms: _84  and  _86
REMARK   38  A    between atoms: _86  and  _87
REMARK   39  A    between atoms: _86  and  _89
REMARK   40  A    between atoms: _89  and  _90
REMARK   41  A    between atoms: _95  and  _96
REMARK   42  A    between atoms: _98  and  _100
REMARK   43  A    between atoms: _100  and  _101
REMARK   44  A    between atoms: _100  and  _103
REMARK   45  A    between atoms: _103  and  _104
REMARK   46  A    between atoms: _107  and  _109
REMARK   47  A    between atoms: _109  and  _110
REMARK   48  A    between atoms: _109  and  _112
REMARK   49  A    between atoms: _112  and  _113
REMARK   50  A    between atoms: _116  and  _118
REMARK   51  A    between atoms: _118  and  _119
REMARK   52  A    between atoms: _118  and  _121
REMARK   53  A    between atoms: _124  and  _126
REMARK   54  A    between atoms: _126  and  _127
REMARK   55  A    between atoms: _126  and  _129
REMARK   56  A    between atoms: _129  and  _130
REMARK   57  A    between atoms: _130  and  _131
REMARK   58  A    between atoms: _131  and  _132
REMARK   59  A    between atoms: _141  and  _143
REMARK   60  A    between atoms: _143  and  _144
REMARK   61  A    between atoms: _143  and  _146
REMARK   62  A    between atoms: _146  and  _147
REMARK   63  A    between atoms: _152  and  _154
REMARK   64  A    between atoms: _154  and  _155
REMARK   65  A    between atoms: _154  and  _157
REMARK   66  A    between atoms: _157  and  _158
REMARK   67  A    between atoms: _158  and  _159
REMARK   68  A    between atoms: _162  and  _164
REMARK   69  A    between atoms: _164  and  _165
REMARK   70  A    between atoms: _164  and  _167
REMARK   71  A    between atoms: _167  and  _168
REMARK   72  A    between atoms: _168  and  _169
REMARK   73  A    between atoms: _169  and  _170
REMARK   74  A    between atoms: _170  and  _171
REMARK   75  A    between atoms: _175  and  _177
REMARK   76  A    between atoms: _177  and  _178
REMARK   77  A    between atoms: _180  and  _182
REMARK   78  A    between atoms: _182  and  _183
REMARK   79  A    between atoms: _182  and  _185
REMARK   80  A    between atoms: _185  and  _186
REMARK   81  A    between atoms: _186  and  _187
REMARK   82  A    between atoms: _192  and  _194
REMARK   83  A    between atoms: _194  and  _195
REMARK   84  A    between atoms: _194  and  _197
REMARK   85  A    between atoms: _200  and  _202
REMARK   86  A    between atoms: _202  and  _203
REMARK   87  A    between atoms: _202  and  _205
REMARK   88  A    between atoms: _205  and  _206
REMARK   89  A    between atoms: _208  and  _210
REMARK   90  A    between atoms: _210  and  _211
REMARK   91  A    between atoms: _210  and  _213
REMARK   92  A    between atoms: _213  and  _214
REMARK   93  A    between atoms: _216  and  _218
REMARK   94  A    between atoms: _218  and  _219
REMARK   95  A    between atoms: _218  and  _221
REMARK   96  A    between atoms: _221  and  _222
REMARK   97  A    between atoms: _228  and  _230
REMARK   98  A    between atoms: _230  and  _231
REMARK   99  A    between atoms: _230  and  _233
REMARK  100  A    between atoms: _233  and  _234
REMARK  101  A    between atoms: _237  and  _239
REMARK  102  A    between atoms: _239  and  _240
REMARK  103  A    between atoms: _239  and  _242
REMARK  104  A    between atoms: _242  and  _243
REMARK  105  A    between atoms: _246  and  _248
REMARK  106  A    between atoms: _248  and  _249
REMARK  107  A    between atoms: _248  and  _251
REMARK  108  A    between atoms: _251  and  _252
REMARK  109  A    between atoms: _255  and  _257
REMARK  110  A    between atoms: _257  and  _258
REMARK  111  A    between atoms: _257  and  _260
REMARK  112  A    between atoms: _260  and  _261
REMARK  113  A    between atoms: _261  and  _262
REMARK  114  A    between atoms: _264  and  _266
REMARK  115  A    between atoms: _266  and  _267
REMARK  116  A    between atoms: _266  and  _269
REMARK  117  A    between atoms: _269  and  _270
REMARK  118  A    between atoms: _276  and  _278
REMARK  119  A    between atoms: _278  and  _279
REMARK  120  A    between atoms: _278  and  _281
REMARK  121  A    between atoms: _283  and  _285
REMARK  122  A    between atoms: _285  and  _286
REMARK  123  A    between atoms: _289  and  _291
REMARK  124  A    between atoms: _291  and  _292
REMARK  125  A    between atoms: _294  and  _296
REMARK  126  A    between atoms: _296  and  _297
REMARK  127  A    between atoms: _296  and  _299
REMARK  128  A    between atoms: _299  and  _300
REMARK  129  A    between atoms: _300  and  _301
REMARK  130  A    between atoms: _304  and  _306
REMARK  131  A    between atoms: _306  and  _307
REMARK  132  A    between atoms: _306  and  _309
REMARK  133  A    between atoms: _309  and  _310
REMARK  134  A    between atoms: _313  and  _315
REMARK  135  A    between atoms: _315  and  _316
REMARK  136  A    between atoms: _319  and  _321
REMARK  137  A    between atoms: _321  and  _322
REMARK  138  A    between atoms: _321  and  _324
REMARK  139  A    between atoms: _324  and  _325
REMARK  140  A    between atoms: _325  and  _448
REMARK  141  A    between atoms: _326  and  _328
REMARK  142  A    between atoms: _328  and  _329
REMARK  143  A    between atoms: _328  and  _331
REMARK  144  A    between atoms: _331  and  _332
REMARK  145  A    between atoms: _332  and  _333
REMARK  146  A    between atoms: _338  and  _340
REMARK  147  A    between atoms: _340  and  _341
REMARK  148  A    between atoms: _343  and  _345
REMARK  149  A    between atoms: _345  and  _346
REMARK  150  A    between atoms: _345  and  _348
REMARK  151  A    between atoms: _348  and  _349
REMARK  152  A    between atoms: _352  and  _354
REMARK  153  A    between atoms: _354  and  _355
REMARK  154  A    between atoms: _354  and  _357
REMARK  155  A    between atoms: _357  and  _358
REMARK  156  A    between atoms: _360  and  _362
REMARK  157  A    between atoms: _362  and  _363
REMARK  158  A    between atoms: _365  and  _367
REMARK  159  A    between atoms: _367  and  _368
REMARK  160  A    between atoms: _370  and  _372
REMARK  161  A    between atoms: _372  and  _373
REMARK  162  A    between atoms: _372  and  _375
REMARK  163  A    between atoms: _375  and  _376
REMARK  164  A    between atoms: _381  and  _383
REMARK  165  A    between atoms: _383  and  _384
REMARK  166  A    between atoms: _383  and  _386
REMARK  167  A    between atoms: _386  and  _387
REMARK  168  A    between atoms: _390  and  _392
REMARK  169  A    between atoms: _392  and  _393
REMARK  170  A    between atoms: _392  and  _395
REMARK  171  A    between atoms: _398  and  _400
REMARK  172  A    between atoms: _400  and  _401
REMARK  173  A    between atoms: _400  and  _403
REMARK  174  A    between atoms: _403  and  _404
REMARK  175  A    between atoms: _406  and  _408
REMARK  176  A    between atoms: _408  and  _409
REMARK  177  A    between atoms: _408  and  _411
REMARK  178  A    between atoms: _411  and  _412
REMARK  179  A    between atoms: _422  and  _424
REMARK  180  A    between atoms: _424  and  _425
REMARK  181  A    between atoms: _427  and  _429
REMARK  182  A    between atoms: _429  and  _430
REMARK  183  A    between atoms: _429  and  _432
REMARK  184  A    between atoms: _432  and  _433
REMARK  185  A    between atoms: _433  and  _434
REMARK  186  A    between atoms: _437  and  _439
REMARK  187  A    between atoms: _439  and  _440
REMARK  188  A    between atoms: _442  and  _444
REMARK  189  A    between atoms: _444  and  _445
REMARK  190  A    between atoms: _444  and  _447
REMARK  191  A    between atoms: _447  and  _448
REMARK  192  A    between atoms: _449  and  _451
REMARK  193  A    between atoms: _451  and  _452
REMARK  194  A    between atoms: _455  and  _457
REMARK  195  A    between atoms: _457  and  _458
REMARK  196  A    between atoms: _457  and  _460
REMARK  197  A    between atoms: _460  and  _461
REMARK  198  A    between atoms: _461  and  _462
REMARK  199  A    between atoms: _462  and  _463
REMARK  200  A    between atoms: _472  and  _474
REMARK  201  A    between atoms: _474  and  _475
REMARK  202  A    between atoms: _474  and  _477
REMARK  203  A    between atoms: _477  and  _478
REMARK  204  A    between atoms: _478  and  _479
REMARK  205  A    between atoms: _479  and  _480
REMARK  206  A    between atoms: _480  and  _481
REMARK  207  A    between atoms: _485  and  _487
REMARK  208  A    between atoms: _487  and  _488
REMARK  209  A    between atoms: _487  and  _490
REMARK  210  A    between atoms: _490  and  _491
REMARK  211  A    between atoms: _496  and  _497
REMARK  212  A    between atoms: _499  and  _501
REMARK  213  A    between atoms: _501  and  _502
REMARK  214  A    between atoms: _504  and  _506
REMARK  215  A    between atoms: _506  and  _507
REMARK  216  A    between atoms: _506  and  _509
REMARK  217  A    between atoms: _509  and  _510
REMARK  218  A    between atoms: _513  and  _515
REMARK  219  A    between atoms: _515  and  _516
REMARK  220  A    between atoms: _515  and  _518
REMARK  221  A    between atoms: _518  and  _519
REMARK  222  A    between atoms: _524  and  _525
REMARK  223  A    between atoms: _527  and  _529
REMARK  224  A    between atoms: _529  and  _530
REMARK  225  A    between atoms: _529  and  _532
REMARK  226  A    between atoms: _532  and  _533
REMARK                            x       y       z     vdW  Elec       q    Type
REMARK                         _______ _______ _______ _____ _____    ______ ____
ROOT
ATOM      1  O   HOH     1       6.881  52.514   4.774  0.00  0.00    +0.000 OA
ENDROOT
TORSDOF 0
REMARK  Name = ../refined-set-2016/2vwn/2vwn_pocket.pdb
REMARK  226 active torsions:
REMARK  status: ('A' for Active; 'I' for Inactive)
REMARK    1  A    between atoms: _1  and  _5
REMARK    2  A    between atoms: _5  and  _6
REMARK    3  A    between atoms: _5  and  _8
REMARK    4  A    between atoms: _8  and  _9
REMARK    5  A    between atoms: _12  and  _14
REMARK    6  A    between atoms: _14  and  _15
REMARK    7  A    between atoms: _14  and  _17
REMARK    8  A    between atoms: _20  and  _22
REMARK    9  A    between atoms: _22  and  _23
REMARK   10  A    between atoms: _22  and  _25
REMARK   11  A    between atoms: _25  and  _26
REMARK   12  A    between atoms: _31  and  _33
REMARK   13  A    between atoms: _33  and  _34
REMARK   14  A    between atoms: _33  and  _36
REMARK   15  A    between atoms: _36  and  _37
REMARK   16  A    between atoms: _37  and  _38
REMARK   17  A    between atoms: _43  and  _45
REMARK   18  A    between atoms: _45  and  _46
REMARK   19  A    between atoms: _45  and  _48
REMARK   20  A    between atoms: _48  and  _49
REMARK   21  A    between atoms: _52  and  _54
REMARK   22  A    between atoms: _54  and  _55
REMARK   23  A    between atoms: _54  and  _57
REMARK   24  A    between atoms: _57  and  _58
REMARK   25  A    between atoms: _58  and  _59
REMARK   26  A    between atoms: _59  and  _60
REMARK   27  A    between atoms: _60  and  _61
REMARK   28  A    between atoms: _65  and  _67
REMARK   29  A    between atoms: _67  and  _68
REMARK   30  A    between atoms: _67  and  _70
REMARK   31  A    between atoms: _70  and  _71
REMARK   32  A    between atoms: _71  and  _72
REMARK   33  A    between atoms: _75  and  _77
REMARK   34  A    between atoms: _77  and  _78
REMARK   35  A    between atoms: _77  and  _80
REMARK   36  A    between atoms: _80  and  _81
REMARK   37  A    between atoms: _84  and  _86
REMARK   38  A    between atoms: _86  and  _87
REMARK   39  A    between atoms: _86  and  _89
REMARK   40  A    between atoms: _89  and  _90
REMARK   41  A    between atoms: _95  and  _96
REMARK   42  A    between atoms: _98  and  _100
REMARK   43  A    between atoms: _100  and  _101
REMARK   44  A    between atoms: _100  and  _103
REMARK   45  A    between atoms: _103  and  _104
REMARK   46  A    between atoms: _107  and  _109
REMARK   47  A    between atoms: _109  and  _110
REMARK   48  A    between atoms: _109  and  _112
REMARK   49  A    between atoms: _112  and  _113
REMARK   50  A    between atoms: _116  and  _118
REMARK   51  A    between atoms: _118  and  _119
REMARK   52  A    between atoms: _118  and  _121
REMARK   53  A    between atoms: _124  and  _126
REMARK   54  A    between atoms: _126  and  _127
REMARK   55  A    between atoms: _126  and  _129
REMARK   56  A    between atoms: _129  and  _130
REMARK   57  A    between atoms: _130  and  _131
REMARK   58  A    between atoms: _131  and  _132
REMARK   59  A    between atoms: _141  and  _143
REMARK   60  A    between atoms: _143  and  _144
REMARK   61  A    between atoms: _143  and  _146
REMARK   62  A    between atoms: _146  and  _147
REMARK   63  A    between atoms: _152  and  _154
REMARK   64  A    between atoms: _154  and  _155
REMARK   65  A    between atoms: _154  and  _157
REMARK   66  A    between atoms: _157  and  _158
REMARK   67  A    between atoms: _158  and  _159
REMARK   68  A    between atoms: _162  and  _164
REMARK   69  A    between atoms: _164  and  _165
REMARK   70  A    between atoms: _164  and  _167
REMARK   71  A    between atoms: _167  and  _168
REMARK   72  A    between atoms: _168  and  _169
REMARK   73  A    between atoms: _169  and  _170
REMARK   74  A    between atoms: _170  and  _171
REMARK   75  A    between atoms: _175  and  _177
REMARK   76  A    between atoms: _177  and  _178
REMARK   77  A    between atoms: _180  and  _182
REMARK   78  A    between atoms: _182  and  _183
REMARK   79  A    between atoms: _182  and  _185
REMARK   80  A    between atoms: _185  and  _186
REMARK   81  A    between atoms: _186  and  _187
REMARK   82  A    between atoms: _192  and  _194
REMARK   83  A    between atoms: _194  and  _195
REMARK   84  A    between atoms: _194  and  _197
REMARK   85  A    between atoms: _200  and  _202
REMARK   86  A    between atoms: _202  and  _203
REMARK   87  A    between atoms: _202  and  _205
REMARK   88  A    between atoms: _205  and  _206
REMARK   89  A    between atoms: _208  and  _210
REMARK   90  A    between atoms: _210  and  _211
REMARK   91  A    between atoms: _210  and  _213
REMARK   92  A    between atoms: _213  and  _214
REMARK   93  A    between atoms: _216  and  _218
REMARK   94  A    between atoms: _218  and  _219
REMARK   95  A    between atoms: _218  and  _221
REMARK   96  A    between atoms: _221  and  _222
REMARK   97  A    between atoms: _228  and  _230
REMARK   98  A    between atoms: _230  and  _231
REMARK   99  A    between atoms: _230  and  _233
REMARK  100  A    between atoms: _233  and  _234
REMARK  101  A    between atoms: _237  and  _239
REMARK  102  A    between atoms: _239  and  _240
REMARK  103  A    between atoms: _239  and  _242
REMARK  104  A    between atoms: _242  and  _243
REMARK  105  A    between atoms: _246  and  _248
REMARK  106  A    between atoms: _248  and  _249
REMARK  107  A    between atoms: _248  and  _251
REMARK  108  A    between atoms: _251  and  _252
REMARK  109  A    between atoms: _255  and  _257
REMARK  110  A    between atoms: _257  and  _258
REMARK  111  A    between atoms: _257  and  _260
REMARK  112  A    between atoms: _260  and  _261
REMARK  113  A    between atoms: _261  and  _262
REMARK  114  A    between atoms: _264  and  _266
REMARK  115  A    between atoms: _266  and  _267
REMARK  116  A    between atoms: _266  and  _269
REMARK  117  A    between atoms: _269  and  _270
REMARK  118  A    between atoms: _276  and  _278
REMARK  119  A    between atoms: _278  and  _279
REMARK  120  A    between atoms: _278  and  _281
REMARK  121  A    between atoms: _283  and  _285
REMARK  122  A    between atoms: _285  and  _286
REMARK  123  A    between atoms: _289  and  _291
REMARK  124  A    between atoms: _291  and  _292
REMARK  125  A    between atoms: _294  and  _296
REMARK  126  A    between atoms: _296  and  _297
REMARK  127  A    between atoms: _296  and  _299
REMARK  128  A    between atoms: _299  and  _300
REMARK  129  A    between atoms: _300  and  _301
REMARK  130  A    between atoms: _304  and  _306
REMARK  131  A    between atoms: _306  and  _307
REMARK  132  A    between atoms: _306  and  _309
REMARK  133  A    between atoms: _309  and  _310
REMARK  134  A    between atoms: _313  and  _315
REMARK  135  A    between atoms: _315  and  _316
REMARK  136  A    between atoms: _319  and  _321
REMARK  137  A    between atoms: _321  and  _322
REMARK  138  A    between atoms: _321  and  _324
REMARK  139  A    between atoms: _324  and  _325
REMARK  140  A    between atoms: _325  and  _448
REMARK  141  A    between atoms: _326  and  _328
REMARK  142  A    between atoms: _328  and  _329
REMARK  143  A    between atoms: _328  and  _331
REMARK  144  A    between atoms: _331  and  _332
REMARK  145  A    between atoms: _332  and  _333
REMARK  146  A    between atoms: _338  and  _340
REMARK  147  A    between atoms: _340  and  _341
REMARK  148  A    between atoms: _343  and  _345
REMARK  149  A    between atoms: _345  and  _346
REMARK  150  A    between atoms: _345  and  _348
REMARK  151  A    between atoms: _348  and  _349
REMARK  152  A    between atoms: _352  and  _354
REMARK  153  A    between atoms: _354  and  _355
REMARK  154  A    between atoms: _354  and  _357
REMARK  155  A    between atoms: _357  and  _358
REMARK  156  A    between atoms: _360  and  _362
REMARK  157  A    between atoms: _362  and  _363
REMARK  158  A    between atoms: _365  and  _367
REMARK  159  A    between atoms: _367  and  _368
REMARK  160  A    between atoms: _370  and  _372
REMARK  161  A    between atoms: _372  and  _373
REMARK  162  A    between atoms: _372  and  _375
REMARK  163  A    between atoms: _375  and  _376
REMARK  164  A    between atoms: _381  and  _383
REMARK  165  A    between atoms: _383  and  _384
REMARK  166  A    between atoms: _383  and  _386
REMARK  167  A    between atoms: _386  and  _387
REMARK  168  A    between atoms: _390  and  _392
REMARK  169  A    between atoms: _392  and  _393
REMARK  170  A    between atoms: _392  and  _395
REMARK  171  A    between atoms: _398  and  _400
REMARK  172  A    between atoms: _400  and  _401
REMARK  173  A    between atoms: _400  and  _403
REMARK  174  A    between atoms: _403  and  _404
REMARK  175  A    between atoms: _406  and  _408
REMARK  176  A    between atoms: _408  and  _409
REMARK  177  A    between atoms: _408  and  _411
REMARK  178  A    between atoms: _411  and  _412
REMARK  179  A    between atoms: _422  and  _424
REMARK  180  A    between atoms: _424  and  _425
REMARK  181  A    between atoms: _427  and  _429
REMARK  182  A    between atoms: _429  and  _430
REMARK  183  A    between atoms: _429  and  _432
REMARK  184  A    between atoms: _432  and  _433
REMARK  185  A    between atoms: _433  and  _434
REMARK  186  A    between atoms: _437  and  _439
REMARK  187  A    between atoms: _439  and  _440
REMARK  188  A    between atoms: _442  and  _444
REMARK  189  A    between atoms: _444  and  _445
REMARK  190  A    between atoms: _444  and  _447
REMARK  191  A    between atoms: _447  and  _448
REMARK  192  A    between atoms: _449  and  _451
REMARK  193  A    between atoms: _451  and  _452
REMARK  194  A    between atoms: _455  and  _457
REMARK  195  A    between atoms: _457  and  _458
REMARK  196  A    between atoms: _457  and  _460
REMARK  197  A    between atoms: _460  and  _461
REMARK  198  A    between atoms: _461  and  _462
REMARK  199  A    between atoms: _462  and  _463
REMARK  200  A    between atoms: _472  and  _474
REMARK  201  A    between atoms: _474  and  _475
REMARK  202  A    between atoms: _474  and  _477
REMARK  203  A    between atoms: _477  and  _478
REMARK  204  A    between atoms: _478  and  _479
REMARK  205  A    between atoms: _479  and  _480
REMARK  206  A    between atoms: _480  and  _481
REMARK  207  A    between atoms: _485  and  _487
REMARK  208  A    between atoms: _487  and  _488
REMARK  209  A    between atoms: _487  and  _490
REMARK  210  A    between atoms: _490  and  _491
REMARK  211  A    between atoms: _496  and  _497
REMARK  212  A    between atoms: _499  and  _501
REMARK  213  A    between atoms: _501  and  _502
REMARK  214  A    between atoms: _504  and  _506
REMARK  215  A    between atoms: _506  and  _507
REMARK  216  A    between atoms: _506  and  _509
REMARK  217  A    between atoms: _509  and  _510
REMARK  218  A    between atoms: _513  and  _515
REMARK  219  A    between atoms: _515  and  _516
REMARK  220  A    between atoms: _515  and  _518
REMARK  221  A    between atoms: _518  and  _519
REMARK  222  A    between atoms: _524  and  _525
REMARK  223  A    between atoms: _527  and  _529
REMARK  224  A    between atoms: _529  and  _530
REMARK  225  A    between atoms: _529  and  _532
REMARK  226  A    between atoms: _532  and  _533
REMARK                            x       y       z     vdW  Elec       q    Type
REMARK                         _______ _______ _______ _____ _____    ______ ____
ROOT
ATOM      1  O   HOH     1       3.877  53.518   5.325  0.00  0.00    +0.000 OA
ENDROOT
TORSDOF 0
REMARK  Name = ../refined-set-2016/2vwn/2vwn_pocket.pdb
REMARK  226 active torsions:
REMARK  status: ('A' for Active; 'I' for Inactive)
REMARK    1  A    between atoms: _1  and  _5
REMARK    2  A    between atoms: _5  and  _6
REMARK    3  A    between atoms: _5  and  _8
REMARK    4  A    between atoms: _8  and  _9
REMARK    5  A    between atoms: _12  and  _14
REMARK    6  A    between atoms: _14  and  _15
REMARK    7  A    between atoms: _14  and  _17
REMARK    8  A    between atoms: _20  and  _22
REMARK    9  A    between atoms: _22  and  _23
REMARK   10  A    between atoms: _22  and  _25
REMARK   11  A    between atoms: _25  and  _26
REMARK   12  A    between atoms: _31  and  _33
REMARK   13  A    between atoms: _33  and  _34
REMARK   14  A    between atoms: _33  and  _36
REMARK   15  A    between atoms: _36  and  _37
REMARK   16  A    between atoms: _37  and  _38
REMARK   17  A    between atoms: _43  and  _45
REMARK   18  A    between atoms: _45  and  _46
REMARK   19  A    between atoms: _45  and  _48
REMARK   20  A    between atoms: _48  and  _49
REMARK   21  A    between atoms: _52  and  _54
REMARK   22  A    between atoms: _54  and  _55
REMARK   23  A    between atoms: _54  and  _57
REMARK   24  A    between atoms: _57  and  _58
REMARK   25  A    between atoms: _58  and  _59
REMARK   26  A    between atoms: _59  and  _60
REMARK   27  A    between atoms: _60  and  _61
REMARK   28  A    between atoms: _65  and  _67
REMARK   29  A    between atoms: _67  and  _68
REMARK   30  A    between atoms: _67  and  _70
REMARK   31  A    between atoms: _70  and  _71
REMARK   32  A    between atoms: _71  and  _72
REMARK   33  A    between atoms: _75  and  _77
REMARK   34  A    between atoms: _77  and  _78
REMARK   35  A    between atoms: _77  and  _80
REMARK   36  A    between atoms: _80  and  _81
REMARK   37  A    between atoms: _84  and  _86
REMARK   38  A    between atoms: _86  and  _87
REMARK   39  A    between atoms: _86  and  _89
REMARK   40  A    between atoms: _89  and  _90
REMARK   41  A    between atoms: _95  and  _96
REMARK   42  A    between atoms: _98  and  _100
REMARK   43  A    between atoms: _100  and  _101
REMARK   44  A    between atoms: _100  and  _103
REMARK   45  A    between atoms: _103  and  _104
REMARK   46  A    between atoms: _107  and  _109
REMARK   47  A    between atoms: _109  and  _110
REMARK   48  A    between atoms: _109  and  _112
REMARK   49  A    between atoms: _112  and  _113
REMARK   50  A    between atoms: _116  and  _118
REMARK   51  A    between atoms: _118  and  _119
REMARK   52  A    between atoms: _118  and  _121
REMARK   53  A    between atoms: _124  and  _126
REMARK   54  A    between atoms: _126  and  _127
REMARK   55  A    between atoms: _126  and  _129
REMARK   56  A    between atoms: _129  and  _130
REMARK   57  A    between atoms: _130  and  _131
REMARK   58  A    between atoms: _131  and  _132
REMARK   59  A    between atoms: _141  and  _143
REMARK   60  A    between atoms: _143  and  _144
REMARK   61  A    between atoms: _143  and  _146
REMARK   62  A    between atoms: _146  and  _147
REMARK   63  A    between atoms: _152  and  _154
REMARK   64  A    between atoms: _154  and  _155
REMARK   65  A    between atoms: _154  and  _157
REMARK   66  A    between atoms: _157  and  _158
REMARK   67  A    between atoms: _158  and  _159
REMARK   68  A    between atoms: _162  and  _164
REMARK   69  A    between atoms: _164  and  _165
REMARK   70  A    between atoms: _164  and  _167
REMARK   71  A    between atoms: _167  and  _168
REMARK   72  A    between atoms: _168  and  _169
REMARK   73  A    between atoms: _169  and  _170
REMARK   74  A    between atoms: _170  and  _171
REMARK   75  A    between atoms: _175  and  _177
REMARK   76  A    between atoms: _177  and  _178
REMARK   77  A    between atoms: _180  and  _182
REMARK   78  A    between atoms: _182  and  _183
REMARK   79  A    between atoms: _182  and  _185
REMARK   80  A    between atoms: _185  and  _186
REMARK   81  A    between atoms: _186  and  _187
REMARK   82  A    between atoms: _192  and  _194
REMARK   83  A    between atoms: _194  and  _195
REMARK   84  A    between atoms: _194  and  _197
REMARK   85  A    between atoms: _200  and  _202
REMARK   86  A    between atoms: _202  and  _203
REMARK   87  A    between atoms: _202  and  _205
REMARK   88  A    between atoms: _205  and  _206
REMARK   89  A    between atoms: _208  and  _210
REMARK   90  A    between atoms: _210  and  _211
REMARK   91  A    between atoms: _210  and  _213
REMARK   92  A    between atoms: _213  and  _214
REMARK   93  A    between atoms: _216  and  _218
REMARK   94  A    between atoms: _218  and  _219
REMARK   95  A    between atoms: _218  and  _221
REMARK   96  A    between atoms: _221  and  _222
REMARK   97  A    between atoms: _228  and  _230
REMARK   98  A    between atoms: _230  and  _231
REMARK   99  A    between atoms: _230  and  _233
REMARK  100  A    between atoms: _233  and  _234
REMARK  101  A    between atoms: _237  and  _239
REMARK  102  A    between atoms: _239  and  _240
REMARK  103  A    between atoms: _239  and  _242
REMARK  104  A    between atoms: _242  and  _243
REMARK  105  A    between atoms: _246  and  _248
REMARK  106  A    between atoms: _248  and  _249
REMARK  107  A    between atoms: _248  and  _251
REMARK  108  A    between atoms: _251  and  _252
REMARK  109  A    between atoms: _255  and  _257
REMARK  110  A    between atoms: _257  and  _258
REMARK  111  A    between atoms: _257  and  _260
REMARK  112  A    between atoms: _260  and  _261
REMARK  113  A    between atoms: _261  and  _262
REMARK  114  A    between atoms: _264  and  _266
REMARK  115  A    between atoms: _266  and  _267
REMARK  116  A    between atoms: _266  and  _269
REMARK  117  A    between atoms: _269  and  _270
REMARK  118  A    between atoms: _276  and  _278
REMARK  119  A    between atoms: _278  and  _279
REMARK  120  A    between atoms: _278  and  _281
REMARK  121  A    between atoms: _283  and  _285
REMARK  122  A    between atoms: _285  and  _286
REMARK  123  A    between atoms: _289  and  _291
REMARK  124  A    between atoms: _291  and  _292
REMARK  125  A    between atoms: _294  and  _296
REMARK  126  A    between atoms: _296  and  _297
REMARK  127  A    between atoms: _296  and  _299
REMARK  128  A    between atoms: _299  and  _300
REMARK  129  A    between atoms: _300  and  _301
REMARK  130  A    between atoms: _304  and  _306
REMARK  131  A    between atoms: _306  and  _307
REMARK  132  A    between atoms: _306  and  _309
REMARK  133  A    between atoms: _309  and  _310
REMARK  134  A    between atoms: _313  and  _315
REMARK  135  A    between atoms: _315  and  _316
REMARK  136  A    between atoms: _319  and  _321
REMARK  137  A    between atoms: _321  and  _322
REMARK  138  A    between atoms: _321  and  _324
REMARK  139  A    between atoms: _324  and  _325
REMARK  140  A    between atoms: _325  and  _448
REMARK  141  A    between atoms: _326  and  _328
REMARK  142  A    between atoms: _328  and  _329
REMARK  143  A    between atoms: _328  and  _331
REMARK  144  A    between atoms: _331  and  _332
REMARK  145  A    between atoms: _332  and  _333
REMARK  146  A    between atoms: _338  and  _340
REMARK  147  A    between atoms: _340  and  _341
REMARK  148  A    between atoms: _343  and  _345
REMARK  149  A    between atoms: _345  and  _346
REMARK  150  A    between atoms: _345  and  _348
REMARK  151  A    between atoms: _348  and  _349
REMARK  152  A    between atoms: _352  and  _354
REMARK  153  A    between atoms: _354  and  _355
REMARK  154  A    between atoms: _354  and  _357
REMARK  155  A    between atoms: _357  and  _358
REMARK  156  A    between atoms: _360  and  _362
REMARK  157  A    between atoms: _362  and  _363
REMARK  158  A    between atoms: _365  and  _367
REMARK  159  A    between atoms: _367  and  _368
REMARK  160  A    between atoms: _370  and  _372
REMARK  161  A    between atoms: _372  and  _373
REMARK  162  A    between atoms: _372  and  _375
REMARK  163  A    between atoms: _375  and  _376
REMARK  164  A    between atoms: _381  and  _383
REMARK  165  A    between atoms: _383  and  _384
REMARK  166  A    between atoms: _383  and  _386
REMARK  167  A    between atoms: _386  and  _387
REMARK  168  A    between atoms: _390  and  _392
REMARK  169  A    between atoms: _392  and  _393
REMARK  170  A    between atoms: _392  and  _395
REMARK  171  A    between atoms: _398  and  _400
REMARK  172  A    between atoms: _400  and  _401
REMARK  173  A    between atoms: _400  and  _403
REMARK  174  A    between atoms: _403  and  _404
REMARK  175  A    between atoms: _406  and  _408
REMARK  176  A    between atoms: _408  and  _409
REMARK  177  A    between atoms: _408  and  _411
REMARK  178  A    between atoms: _411  and  _412
REMARK  179  A    between atoms: _422  and  _424
REMARK  180  A    between atoms: _424  and  _425
REMARK  181  A    between atoms: _427  and  _429
REMARK  182  A    between atoms: _429  and  _430
REMARK  183  A    between atoms: _429  and  _432
REMARK  184  A    between atoms: _432  and  _433
REMARK  185  A    between atoms: _433  and  _434
REMARK  186  A    between atoms: _437  and  _439
REMARK  187  A    between atoms: _439  and  _440
REMARK  188  A    between atoms: _442  and  _444
REMARK  189  A    between atoms: _444  and  _445
REMARK  190  A    between atoms: _444  and  _447
REMARK  191  A    between atoms: _447  and  _448
REMARK  192  A    between atoms: _449  and  _451
REMARK  193  A    between atoms: _451  and  _452
REMARK  194  A    between atoms: _455  and  _457
REMARK  195  A    between atoms: _457  and  _458
REMARK  196  A    between atoms: _457  and  _460
REMARK  197  A    between atoms: _460  and  _461
REMARK  198  A    between atoms: _461  and  _462
REMARK  199  A    between atoms: _462  and  _463
REMARK  200  A    between atoms: _472  and  _474
REMARK  201  A    between atoms: _474  and  _475
REMARK  202  A    between atoms: _474  and  _477
REMARK  203  A    between atoms: _477  and  _478
REMARK  204  A    between atoms: _478  and  _479
REMARK  205  A    between atoms: _479  and  _480
REMARK  206  A    between atoms: _480  and  _481
REMARK  207  A    between atoms: _485  and  _487
REMARK  208  A    between atoms: _487  and  _488
REMARK  209  A    between atoms: _487  and  _490
REMARK  210  A    between atoms: _490  and  _491
REMARK  211  A    between atoms: _496  and  _497
REMARK  212  A    between atoms: _499  and  _501
REMARK  213  A    between atoms: _501  and  _502
REMARK  214  A    between atoms: _504  and  _506
REMARK  215  A    between atoms: _506  and  _507
REMARK  216  A    between atoms: _506  and  _509
REMARK  217  A    between atoms: _509  and  _510
REMARK  218  A    between atoms: _513  and  _515
REMARK  219  A    between atoms: _515  and  _516
REMARK  220  A    between atoms: _515  and  _518
REMARK  221  A    between atoms: _518  and  _519
REMARK  222  A    between atoms: _524  and  _525
REMARK  223  A    between atoms: _527  and  _529
REMARK  224  A    between atoms: _529  and  _530
REMARK  225  A    between atoms: _529  and  _532
REMARK  226  A    between atoms: _532  and  _533
REMARK                            x       y       z     vdW  Elec       q    Type
REMARK                         _______ _______ _______ _____ _____    ______ ____
ROOT
ATOM      1  O   HOH     1      16.567  65.052  14.091  0.00  0.00    +0.000 OA
ENDROOT
TORSDOF 0
REMARK  Name = ../refined-set-2016/2vwn/2vwn_pocket.pdb
REMARK  226 active torsions:
REMARK  status: ('A' for Active; 'I' for Inactive)
REMARK    1  A    between atoms: _1  and  _5
REMARK    2  A    between atoms: _5  and  _6
REMARK    3  A    between atoms: _5  and  _8
REMARK    4  A    between atoms: _8  and  _9
REMARK    5  A    between atoms: _12  and  _14
REMARK    6  A    between atoms: _14  and  _15
REMARK    7  A    between atoms: _14  and  _17
REMARK    8  A    between atoms: _20  and  _22
REMARK    9  A    between atoms: _22  and  _23
REMARK   10  A    between atoms: _22  and  _25
REMARK   11  A    between atoms: _25  and  _26
REMARK   12  A    between atoms: _31  and  _33
REMARK   13  A    between atoms: _33  and  _34
REMARK   14  A    between atoms: _33  and  _36
REMARK   15  A    between atoms: _36  and  _37
REMARK   16  A    between atoms: _37  and  _38
REMARK   17  A    between atoms: _43  and  _45
REMARK   18  A    between atoms: _45  and  _46
REMARK   19  A    between atoms: _45  and  _48
REMARK   20  A    between atoms: _48  and  _49
REMARK   21  A    between atoms: _52  and  _54
REMARK   22  A    between atoms: _54  and  _55
REMARK   23  A    between atoms: _54  and  _57
REMARK   24  A    between atoms: _57  and  _58
REMARK   25  A    between atoms: _58  and  _59
REMARK   26  A    between atoms: _59  and  _60
REMARK   27  A    between atoms: _60  and  _61
REMARK   28  A    between atoms: _65  and  _67
REMARK   29  A    between atoms: _67  and  _68
REMARK   30  A    between atoms: _67  and  _70
REMARK   31  A    between atoms: _70  and  _71
REMARK   32  A    between atoms: _71  and  _72
REMARK   33  A    between atoms: _75  and  _77
REMARK   34  A    between atoms: _77  and  _78
REMARK   35  A    between atoms: _77  and  _80
REMARK   36  A    between atoms: _80  and  _81
REMARK   37  A    between atoms: _84  and  _86
REMARK   38  A    between atoms: _86  and  _87
REMARK   39  A    between atoms: _86  and  _89
REMARK   40  A    between atoms: _89  and  _90
REMARK   41  A    between atoms: _95  and  _96
REMARK   42  A    between atoms: _98  and  _100
REMARK   43  A    between atoms: _100  and  _101
REMARK   44  A    between atoms: _100  and  _103
REMARK   45  A    between atoms: _103  and  _104
REMARK   46  A    between atoms: _107  and  _109
REMARK   47  A    between atoms: _109  and  _110
REMARK   48  A    between atoms: _109  and  _112
REMARK   49  A    between atoms: _112  and  _113
REMARK   50  A    between atoms: _116  and  _118
REMARK   51  A    between atoms: _118  and  _119
REMARK   52  A    between atoms: _118  and  _121
REMARK   53  A    between atoms: _124  and  _126
REMARK   54  A    between atoms: _126  and  _127
REMARK   55  A    between atoms: _126  and  _129
REMARK   56  A    between atoms: _129  and  _130
REMARK   57  A    between atoms: _130  and  _131
REMARK   58  A    between atoms: _131  and  _132
REMARK   59  A    between atoms: _141  and  _143
REMARK   60  A    between atoms: _143  and  _144
REMARK   61  A    between atoms: _143  and  _146
REMARK   62  A    between atoms: _146  and  _147
REMARK   63  A    between atoms: _152  and  _154
REMARK   64  A    between atoms: _154  and  _155
REMARK   65  A    between atoms: _154  and  _157
REMARK   66  A    between atoms: _157  and  _158
REMARK   67  A    between atoms: _158  and  _159
REMARK   68  A    between atoms: _162  and  _164
REMARK   69  A    between atoms: _164  and  _165
REMARK   70  A    between atoms: _164  and  _167
REMARK   71  A    between atoms: _167  and  _168
REMARK   72  A    between atoms: _168  and  _169
REMARK   73  A    between atoms: _169  and  _170
REMARK   74  A    between atoms: _170  and  _171
REMARK   75  A    between atoms: _175  and  _177
REMARK   76  A    between atoms: _177  and  _178
REMARK   77  A    between atoms: _180  and  _182
REMARK   78  A    between atoms: _182  and  _183
REMARK   79  A    between atoms: _182  and  _185
REMARK   80  A    between atoms: _185  and  _186
REMARK   81  A    between atoms: _186  and  _187
REMARK   82  A    between atoms: _192  and  _194
REMARK   83  A    between atoms: _194  and  _195
REMARK   84  A    between atoms: _194  and  _197
REMARK   85  A    between atoms: _200  and  _202
REMARK   86  A    between atoms: _202  and  _203
REMARK   87  A    between atoms: _202  and  _205
REMARK   88  A    between atoms: _205  and  _206
REMARK   89  A    between atoms: _208  and  _210
REMARK   90  A    between atoms: _210  and  _211
REMARK   91  A    between atoms: _210  and  _213
REMARK   92  A    between atoms: _213  and  _214
REMARK   93  A    between atoms: _216  and  _218
REMARK   94  A    between atoms: _218  and  _219
REMARK   95  A    between atoms: _218  and  _221
REMARK   96  A    between atoms: _221  and  _222
REMARK   97  A    between atoms: _228  and  _230
REMARK   98  A    between atoms: _230  and  _231
REMARK   99  A    between atoms: _230  and  _233
REMARK  100  A    between atoms: _233  and  _234
REMARK  101  A    between atoms: _237  and  _239
REMARK  102  A    between atoms: _239  and  _240
REMARK  103  A    between atoms: _239  and  _242
REMARK  104  A    between atoms: _242  and  _243
REMARK  105  A    between atoms: _246  and  _248
REMARK  106  A    between atoms: _248  and  _249
REMARK  107  A    between atoms: _248  and  _251
REMARK  108  A    between atoms: _251  and  _252
REMARK  109  A    between atoms: _255  and  _257
REMARK  110  A    between atoms: _257  and  _258
REMARK  111  A    between atoms: _257  and  _260
REMARK  112  A    between atoms: _260  and  _261
REMARK  113  A    between atoms: _261  and  _262
REMARK  114  A    between atoms: _264  and  _266
REMARK  115  A    between atoms: _266  and  _267
REMARK  116  A    between atoms: _266  and  _269
REMARK  117  A    between atoms: _269  and  _270
REMARK  118  A    between atoms: _276  and  _278
REMARK  119  A    between atoms: _278  and  _279
REMARK  120  A    between atoms: _278  and  _281
REMARK  121  A    between atoms: _283  and  _285
REMARK  122  A    between atoms: _285  and  _286
REMARK  123  A    between atoms: _289  and  _291
REMARK  124  A    between atoms: _291  and  _292
REMARK  125  A    between atoms: _294  and  _296
REMARK  126  A    between atoms: _296  and  _297
REMARK  127  A    between atoms: _296  and  _299
REMARK  128  A    between atoms: _299  and  _300
REMARK  129  A    between atoms: _300  and  _301
REMARK  130  A    between atoms: _304  and  _306
REMARK  131  A    between atoms: _306  and  _307
REMARK  132  A    between atoms: _306  and  _309
REMARK  133  A    between atoms: _309  and  _310
REMARK  134  A    between atoms: _313  and  _315
REMARK  135  A    between atoms: _315  and  _316
REMARK  136  A    between atoms: _319  and  _321
REMARK  137  A    between atoms: _321  and  _322
REMARK  138  A    between atoms: _321  and  _324
REMARK  139  A    between atoms: _324  and  _325
REMARK  140  A    between atoms: _325  and  _448
REMARK  141  A    between atoms: _326  and  _328
REMARK  142  A    between atoms: _328  and  _329
REMARK  143  A    between atoms: _328  and  _331
REMARK  144  A    between atoms: _331  and  _332
REMARK  145  A    between atoms: _332  and  _333
REMARK  146  A    between atoms: _338  and  _340
REMARK  147  A    between atoms: _340  and  _341
REMARK  148  A    between atoms: _343  and  _345
REMARK  149  A    between atoms: _345  and  _346
REMARK  150  A    between atoms: _345  and  _348
REMARK  151  A    between atoms: _348  and  _349
REMARK  152  A    between atoms: _352  and  _354
REMARK  153  A    between atoms: _354  and  _355
REMARK  154  A    between atoms: _354  and  _357
REMARK  155  A    between atoms: _357  and  _358
REMARK  156  A    between atoms: _360  and  _362
REMARK  157  A    between atoms: _362  and  _363
REMARK  158  A    between atoms: _365  and  _367
REMARK  159  A    between atoms: _367  and  _368
REMARK  160  A    between atoms: _370  and  _372
REMARK  161  A    between atoms: _372  and  _373
REMARK  162  A    between atoms: _372  and  _375
REMARK  163  A    between atoms: _375  and  _376
REMARK  164  A    between atoms: _381  and  _383
REMARK  165  A    between atoms: _383  and  _384
REMARK  166  A    between atoms: _383  and  _386
REMARK  167  A    between atoms: _386  and  _387
REMARK  168  A    between atoms: _390  and  _392
REMARK  169  A    between atoms: _392  and  _393
REMARK  170  A    between atoms: _392  and  _395
REMARK  171  A    between atoms: _398  and  _400
REMARK  172  A    between atoms: _400  and  _401
REMARK  173  A    between atoms: _400  and  _403
REMARK  174  A    between atoms: _403  and  _404
REMARK  175  A    between atoms: _406  and  _408
REMARK  176  A    between atoms: _408  and  _409
REMARK  177  A    between atoms: _408  and  _411
REMARK  178  A    between atoms: _411  and  _412
REMARK  179  A    between atoms: _422  and  _424
REMARK  180  A    between atoms: _424  and  _425
REMARK  181  A    between atoms: _427  and  _429
REMARK  182  A    between atoms: _429  and  _430
REMARK  183  A    between atoms: _429  and  _432
REMARK  184  A    between atoms: _432  and  _433
REMARK  185  A    between atoms: _433  and  _434
REMARK  186  A    between atoms: _437  and  _439
REMARK  187  A    between atoms: _439  and  _440
REMARK  188  A    between atoms: _442  and  _444
REMARK  189  A    between atoms: _444  and  _445
REMARK  190  A    between atoms: _444  and  _447
REMARK  191  A    between atoms: _447  and  _448
REMARK  192  A    between atoms: _449  and  _451
REMARK  193  A    between atoms: _451  and  _452
REMARK  194  A    between atoms: _455  and  _457
REMARK  195  A    between atoms: _457  and  _458
REMARK  196  A    between atoms: _457  and  _460
REMARK  197  A    between atoms: _460  and  _461
REMARK  198  A    between atoms: _461  and  _462
REMARK  199  A    between atoms: _462  and  _463
REMARK  200  A    between atoms: _472  and  _474
REMARK  201  A    between atoms: _474  and  _475
REMARK  202  A    between atoms: _474  and  _477
REMARK  203  A    between atoms: _477  and  _478
REMARK  204  A    between atoms: _478  and  _479
REMARK  205  A    between atoms: _479  and  _480
REMARK  206  A    between atoms: _480  and  _481
REMARK  207  A    between atoms: _485  and  _487
REMARK  208  A    between atoms: _487  and  _488
REMARK  209  A    between atoms: _487  and  _490
REMARK  210  A    between atoms: _490  and  _491
REMARK  211  A    between atoms: _496  and  _497
REMARK  212  A    between atoms: _499  and  _501
REMARK  213  A    between atoms: _501  and  _502
REMARK  214  A    between atoms: _504  and  _506
REMARK  215  A    between atoms: _506  and  _507
REMARK  216  A    between atoms: _506  and  _509
REMARK  217  A    between atoms: _509  and  _510
REMARK  218  A    between atoms: _513  and  _515
REMARK  219  A    between atoms: _515  and  _516
REMARK  220  A    between atoms: _515  and  _518
REMARK  221  A    between atoms: _518  and  _519
REMARK  222  A    between atoms: _524  and  _525
REMARK  223  A    between atoms: _527  and  _529
REMARK  224  A    between atoms: _529  and  _530
REMARK  225  A    between atoms: _529  and  _532
REMARK  226  A    between atoms: _532  and  _533
REMARK                            x       y       z     vdW  Elec       q    Type
REMARK                         _______ _______ _______ _____ _____    ______ ____
ROOT
ATOM      1  O   HOH     1      12.577  64.394  10.031  0.00  0.00    +0.000 OA
ENDROOT
TORSDOF 0
REMARK  Name = ../refined-set-2016/2vwn/2vwn_pocket.pdb
REMARK  226 active torsions:
REMARK  status: ('A' for Active; 'I' for Inactive)
REMARK    1  A    between atoms: _1  and  _5
REMARK    2  A    between atoms: _5  and  _6
REMARK    3  A    between atoms: _5  and  _8
REMARK    4  A    between atoms: _8  and  _9
REMARK    5  A    between atoms: _12  and  _14
REMARK    6  A    between atoms: _14  and  _15
REMARK    7  A    between atoms: _14  and  _17
REMARK    8  A    between atoms: _20  and  _22
REMARK    9  A    between atoms: _22  and  _23
REMARK   10  A    between atoms: _22  and  _25
REMARK   11  A    between atoms: _25  and  _26
REMARK   12  A    between atoms: _31  and  _33
REMARK   13  A    between atoms: _33  and  _34
REMARK   14  A    between atoms: _33  and  _36
REMARK   15  A    between atoms: _36  and  _37
REMARK   16  A    between atoms: _37  and  _38
REMARK   17  A    between atoms: _43  and  _45
REMARK   18  A    between atoms: _45  and  _46
REMARK   19  A    between atoms: _45  and  _48
REMARK   20  A    between atoms: _48  and  _49
REMARK   21  A    between atoms: _52  and  _54
REMARK   22  A    between atoms: _54  and  _55
REMARK   23  A    between atoms: _54  and  _57
REMARK   24  A    between atoms: _57  and  _58
REMARK   25  A    between atoms: _58  and  _59
REMARK   26  A    between atoms: _59  and  _60
REMARK   27  A    between atoms: _60  and  _61
REMARK   28  A    between atoms: _65  and  _67
REMARK   29  A    between atoms: _67  and  _68
REMARK   30  A    between atoms: _67  and  _70
REMARK   31  A    between atoms: _70  and  _71
REMARK   32  A    between atoms: _71  and  _72
REMARK   33  A    between atoms: _75  and  _77
REMARK   34  A    between atoms: _77  and  _78
REMARK   35  A    between atoms: _77  and  _80
REMARK   36  A    between atoms: _80  and  _81
REMARK   37  A    between atoms: _84  and  _86
REMARK   38  A    between atoms: _86  and  _87
REMARK   39  A    between atoms: _86  and  _89
REMARK   40  A    between atoms: _89  and  _90
REMARK   41  A    between atoms: _95  and  _96
REMARK   42  A    between atoms: _98  and  _100
REMARK   43  A    between atoms: _100  and  _101
REMARK   44  A    between atoms: _100  and  _103
REMARK   45  A    between atoms: _103  and  _104
REMARK   46  A    between atoms: _107  and  _109
REMARK   47  A    between atoms: _109  and  _110
REMARK   48  A    between atoms: _109  and  _112
REMARK   49  A    between atoms: _112  and  _113
REMARK   50  A    between atoms: _116  and  _118
REMARK   51  A    between atoms: _118  and  _119
REMARK   52  A    between atoms: _118  and  _121
REMARK   53  A    between atoms: _124  and  _126
REMARK   54  A    between atoms: _126  and  _127
REMARK   55  A    between atoms: _126  and  _129
REMARK   56  A    between atoms: _129  and  _130
REMARK   57  A    between atoms: _130  and  _131
REMARK   58  A    between atoms: _131  and  _132
REMARK   59  A    between atoms: _141  and  _143
REMARK   60  A    between atoms: _143  and  _144
REMARK   61  A    between atoms: _143  and  _146
REMARK   62  A    between atoms: _146  and  _147
REMARK   63  A    between atoms: _152  and  _154
REMARK   64  A    between atoms: _154  and  _155
REMARK   65  A    between atoms: _154  and  _157
REMARK   66  A    between atoms: _157  and  _158
REMARK   67  A    between atoms: _158  and  _159
REMARK   68  A    between atoms: _162  and  _164
REMARK   69  A    between atoms: _164  and  _165
REMARK   70  A    between atoms: _164  and  _167
REMARK   71  A    between atoms: _167  and  _168
REMARK   72  A    between atoms: _168  and  _169
REMARK   73  A    between atoms: _169  and  _170
REMARK   74  A    between atoms: _170  and  _171
REMARK   75  A    between atoms: _175  and  _177
REMARK   76  A    between atoms: _177  and  _178
REMARK   77  A    between atoms: _180  and  _182
REMARK   78  A    between atoms: _182  and  _183
REMARK   79  A    between atoms: _182  and  _185
REMARK   80  A    between atoms: _185  and  _186
REMARK   81  A    between atoms: _186  and  _187
REMARK   82  A    between atoms: _192  and  _194
REMARK   83  A    between atoms: _194  and  _195
REMARK   84  A    between atoms: _194  and  _197
REMARK   85  A    between atoms: _200  and  _202
REMARK   86  A    between atoms: _202  and  _203
REMARK   87  A    between atoms: _202  and  _205
REMARK   88  A    between atoms: _205  and  _206
REMARK   89  A    between atoms: _208  and  _210
REMARK   90  A    between atoms: _210  and  _211
REMARK   91  A    between atoms: _210  and  _213
REMARK   92  A    between atoms: _213  and  _214
REMARK   93  A    between atoms: _216  and  _218
REMARK   94  A    between atoms: _218  and  _219
REMARK   95  A    between atoms: _218  and  _221
REMARK   96  A    between atoms: _221  and  _222
REMARK   97  A    between atoms: _228  and  _230
REMARK   98  A    between atoms: _230  and  _231
REMARK   99  A    between atoms: _230  and  _233
REMARK  100  A    between atoms: _233  and  _234
REMARK  101  A    between atoms: _237  and  _239
REMARK  102  A    between atoms: _239  and  _240
REMARK  103  A    between atoms: _239  and  _242
REMARK  104  A    between atoms: _242  and  _243
REMARK  105  A    between atoms: _246  and  _248
REMARK  106  A    between atoms: _248  and  _249
REMARK  107  A    between atoms: _248  and  _251
REMARK  108  A    between atoms: _251  and  _252
REMARK  109  A    between atoms: _255  and  _257
REMARK  110  A    between atoms: _257  and  _258
REMARK  111  A    between atoms: _257  and  _260
REMARK  112  A    between atoms: _260  and  _261
REMARK  113  A    between atoms: _261  and  _262
REMARK  114  A    between atoms: _264  and  _266
REMARK  115  A    between atoms: _266  and  _267
REMARK  116  A    between atoms: _266  and  _269
REMARK  117  A    between atoms: _269  and  _270
REMARK  118  A    between atoms: _276  and  _278
REMARK  119  A    between atoms: _278  and  _279
REMARK  120  A    between atoms: _278  and  _281
REMARK  121  A    between atoms: _283  and  _285
REMARK  122  A    between atoms: _285  and  _286
REMARK  123  A    between atoms: _289  and  _291
REMARK  124  A    between atoms: _291  and  _292
REMARK  125  A    between atoms: _294  and  _296
REMARK  126  A    between atoms: _296  and  _297
REMARK  127  A    between atoms: _296  and  _299
REMARK  128  A    between atoms: _299  and  _300
REMARK  129  A    between atoms: _300  and  _301
REMARK  130  A    between atoms: _304  and  _306
REMARK  131  A    between atoms: _306  and  _307
REMARK  132  A    between atoms: _306  and  _309
REMARK  133  A    between atoms: _309  and  _310
REMARK  134  A    between atoms: _313  and  _315
REMARK  135  A    between atoms: _315  and  _316
REMARK  136  A    between atoms: _319  and  _321
REMARK  137  A    between atoms: _321  and  _322
REMARK  138  A    between atoms: _321  and  _324
REMARK  139  A    between atoms: _324  and  _325
REMARK  140  A    between atoms: _325  and  _448
REMARK  141  A    between atoms: _326  and  _328
REMARK  142  A    between atoms: _328  and  _329
REMARK  143  A    between atoms: _328  and  _331
REMARK  144  A    between atoms: _331  and  _332
REMARK  145  A    between atoms: _332  and  _333
REMARK  146  A    between atoms: _338  and  _340
REMARK  147  A    between atoms: _340  and  _341
REMARK  148  A    between atoms: _343  and  _345
REMARK  149  A    between atoms: _345  and  _346
REMARK  150  A    between atoms: _345  and  _348
REMARK  151  A    between atoms: _348  and  _349
REMARK  152  A    between atoms: _352  and  _354
REMARK  153  A    between atoms: _354  and  _355
REMARK  154  A    between atoms: _354  and  _357
REMARK  155  A    between atoms: _357  and  _358
REMARK  156  A    between atoms: _360  and  _362
REMARK  157  A    between atoms: _362  and  _363
REMARK  158  A    between atoms: _365  and  _367
REMARK  159  A    between atoms: _367  and  _368
REMARK  160  A    between atoms: _370  and  _372
REMARK  161  A    between atoms: _372  and  _373
REMARK  162  A    between atoms: _372  and  _375
REMARK  163  A    between atoms: _375  and  _376
REMARK  164  A    between atoms: _381  and  _383
REMARK  165  A    between atoms: _383  and  _384
REMARK  166  A    between atoms: _383  and  _386
REMARK  167  A    between atoms: _386  and  _387
REMARK  168  A    between atoms: _390  and  _392
REMARK  169  A    between atoms: _392  and  _393
REMARK  170  A    between atoms: _392  and  _395
REMARK  171  A    between atoms: _398  and  _400
REMARK  172  A    between atoms: _400  and  _401
REMARK  173  A    between atoms: _400  and  _403
REMARK  174  A    between atoms: _403  and  _404
REMARK  175  A    between atoms: _406  and  _408
REMARK  176  A    between atoms: _408  and  _409
REMARK  177  A    between atoms: _408  and  _411
REMARK  178  A    between atoms: _411  and  _412
REMARK  179  A    between atoms: _422  and  _424
REMARK  180  A    between atoms: _424  and  _425
REMARK  181  A    between atoms: _427  and  _429
REMARK  182  A    between atoms: _429  and  _430
REMARK  183  A    between atoms: _429  and  _432
REMARK  184  A    between atoms: _432  and  _433
REMARK  185  A    between atoms: _433  and  _434
REMARK  186  A    between atoms: _437  and  _439
REMARK  187  A    between atoms: _439  and  _440
REMARK  188  A    between atoms: _442  and  _444
REMARK  189  A    between atoms: _444  and  _445
REMARK  190  A    between atoms: _444  and  _447
REMARK  191  A    between atoms: _447  and  _448
REMARK  192  A    between atoms: _449  and  _451
REMARK  193  A    between atoms: _451  and  _452
REMARK  194  A    between atoms: _455  and  _457
REMARK  195  A    between atoms: _457  and  _458
REMARK  196  A    between atoms: _457  and  _460
REMARK  197  A    between atoms: _460  and  _461
REMARK  198  A    between atoms: _461  and  _462
REMARK  199  A    between atoms: _462  and  _463
REMARK  200  A    between atoms: _472  and  _474
REMARK  201  A    between atoms: _474  and  _475
REMARK  202  A    between atoms: _474  and  _477
REMARK  203  A    between atoms: _477  and  _478
REMARK  204  A    between atoms: _478  and  _479
REMARK  205  A    between atoms: _479  and  _480
REMARK  206  A    between atoms: _480  and  _481
REMARK  207  A    between atoms: _485  and  _487
REMARK  208  A    between atoms: _487  and  _488
REMARK  209  A    between atoms: _487  and  _490
REMARK  210  A    between atoms: _490  and  _491
REMARK  211  A    between atoms: _496  and  _497
REMARK  212  A    between atoms: _499  and  _501
REMARK  213  A    between atoms: _501  and  _502
REMARK  214  A    between atoms: _504  and  _506
REMARK  215  A    between atoms: _506  and  _507
REMARK  216  A    between atoms: _506  and  _509
REMARK  217  A    between atoms: _509  and  _510
REMARK  218  A    between atoms: _513  and  _515
REMARK  219  A    between atoms: _515  and  _516
REMARK  220  A    between atoms: _515  and  _518
REMARK  221  A    between atoms: _518  and  _519
REMARK  222  A    between atoms: _524  and  _525
REMARK  223  A    between atoms: _527  and  _529
REMARK  224  A    between atoms: _529  and  _530
REMARK  225  A    between atoms: _529  and  _532
REMARK  226  A    between atoms: _532  and  _533
REMARK                            x       y       z     vdW  Elec       q    Type
REMARK                         _______ _______ _______ _____ _____    ______ ____
ROOT
ATOM      1  O   HOH     1      16.496  66.095  -1.724  0.00  0.00    +0.000 OA
ENDROOT
TORSDOF 0
REMARK  Name = ../refined-set-2016/2vwn/2vwn_pocket.pdb
REMARK  226 active torsions:
REMARK  status: ('A' for Active; 'I' for Inactive)
REMARK    1  A    between atoms: _1  and  _5
REMARK    2  A    between atoms: _5  and  _6
REMARK    3  A    between atoms: _5  and  _8
REMARK    4  A    between atoms: _8  and  _9
REMARK    5  A    between atoms: _12  and  _14
REMARK    6  A    between atoms: _14  and  _15
REMARK    7  A    between atoms: _14  and  _17
REMARK    8  A    between atoms: _20  and  _22
REMARK    9  A    between atoms: _22  and  _23
REMARK   10  A    between atoms: _22  and  _25
REMARK   11  A    between atoms: _25  and  _26
REMARK   12  A    between atoms: _31  and  _33
REMARK   13  A    between atoms: _33  and  _34
REMARK   14  A    between atoms: _33  and  _36
REMARK   15  A    between atoms: _36  and  _37
REMARK   16  A    between atoms: _37  and  _38
REMARK   17  A    between atoms: _43  and  _45
REMARK   18  A    between atoms: _45  and  _46
REMARK   19  A    between atoms: _45  and  _48
REMARK   20  A    between atoms: _48  and  _49
REMARK   21  A    between atoms: _52  and  _54
REMARK   22  A    between atoms: _54  and  _55
REMARK   23  A    between atoms: _54  and  _57
REMARK   24  A    between atoms: _57  and  _58
REMARK   25  A    between atoms: _58  and  _59
REMARK   26  A    between atoms: _59  and  _60
REMARK   27  A    between atoms: _60  and  _61
REMARK   28  A    between atoms: _65  and  _67
REMARK   29  A    between atoms: _67  and  _68
REMARK   30  A    between atoms: _67  and  _70
REMARK   31  A    between atoms: _70  and  _71
REMARK   32  A    between atoms: _71  and  _72
REMARK   33  A    between atoms: _75  and  _77
REMARK   34  A    between atoms: _77  and  _78
REMARK   35  A    between atoms: _77  and  _80
REMARK   36  A    between atoms: _80  and  _81
REMARK   37  A    between atoms: _84  and  _86
REMARK   38  A    between atoms: _86  and  _87
REMARK   39  A    between atoms: _86  and  _89
REMARK   40  A    between atoms: _89  and  _90
REMARK   41  A    between atoms: _95  and  _96
REMARK   42  A    between atoms: _98  and  _100
REMARK   43  A    between atoms: _100  and  _101
REMARK   44  A    between atoms: _100  and  _103
REMARK   45  A    between atoms: _103  and  _104
REMARK   46  A    between atoms: _107  and  _109
REMARK   47  A    between atoms: _109  and  _110
REMARK   48  A    between atoms: _109  and  _112
REMARK   49  A    between atoms: _112  and  _113
REMARK   50  A    between atoms: _116  and  _118
REMARK   51  A    between atoms: _118  and  _119
REMARK   52  A    between atoms: _118  and  _121
REMARK   53  A    between atoms: _124  and  _126
REMARK   54  A    between atoms: _126  and  _127
REMARK   55  A    between atoms: _126  and  _129
REMARK   56  A    between atoms: _129  and  _130
REMARK   57  A    between atoms: _130  and  _131
REMARK   58  A    between atoms: _131  and  _132
REMARK   59  A    between atoms: _141  and  _143
REMARK   60  A    between atoms: _143  and  _144
REMARK   61  A    between atoms: _143  and  _146
REMARK   62  A    between atoms: _146  and  _147
REMARK   63  A    between atoms: _152  and  _154
REMARK   64  A    between atoms: _154  and  _155
REMARK   65  A    between atoms: _154  and  _157
REMARK   66  A    between atoms: _157  and  _158
REMARK   67  A    between atoms: _158  and  _159
REMARK   68  A    between atoms: _162  and  _164
REMARK   69  A    between atoms: _164  and  _165
REMARK   70  A    between atoms: _164  and  _167
REMARK   71  A    between atoms: _167  and  _168
REMARK   72  A    between atoms: _168  and  _169
REMARK   73  A    between atoms: _169  and  _170
REMARK   74  A    between atoms: _170  and  _171
REMARK   75  A    between atoms: _175  and  _177
REMARK   76  A    between atoms: _177  and  _178
REMARK   77  A    between atoms: _180  and  _182
REMARK   78  A    between atoms: _182  and  _183
REMARK   79  A    between atoms: _182  and  _185
REMARK   80  A    between atoms: _185  and  _186
REMARK   81  A    between atoms: _186  and  _187
REMARK   82  A    between atoms: _192  and  _194
REMARK   83  A    between atoms: _194  and  _195
REMARK   84  A    between atoms: _194  and  _197
REMARK   85  A    between atoms: _200  and  _202
REMARK   86  A    between atoms: _202  and  _203
REMARK   87  A    between atoms: _202  and  _205
REMARK   88  A    between atoms: _205  and  _206
REMARK   89  A    between atoms: _208  and  _210
REMARK   90  A    between atoms: _210  and  _211
REMARK   91  A    between atoms: _210  and  _213
REMARK   92  A    between atoms: _213  and  _214
REMARK   93  A    between atoms: _216  and  _218
REMARK   94  A    between atoms: _218  and  _219
REMARK   95  A    between atoms: _218  and  _221
REMARK   96  A    between atoms: _221  and  _222
REMARK   97  A    between atoms: _228  and  _230
REMARK   98  A    between atoms: _230  and  _231
REMARK   99  A    between atoms: _230  and  _233
REMARK  100  A    between atoms: _233  and  _234
REMARK  101  A    between atoms: _237  and  _239
REMARK  102  A    between atoms: _239  and  _240
REMARK  103  A    between atoms: _239  and  _242
REMARK  104  A    between atoms: _242  and  _243
REMARK  105  A    between atoms: _246  and  _248
REMARK  106  A    between atoms: _248  and  _249
REMARK  107  A    between atoms: _248  and  _251
REMARK  108  A    between atoms: _251  and  _252
REMARK  109  A    between atoms: _255  and  _257
REMARK  110  A    between atoms: _257  and  _258
REMARK  111  A    between atoms: _257  and  _260
REMARK  112  A    between atoms: _260  and  _261
REMARK  113  A    between atoms: _261  and  _262
REMARK  114  A    between atoms: _264  and  _266
REMARK  115  A    between atoms: _266  and  _267
REMARK  116  A    between atoms: _266  and  _269
REMARK  117  A    between atoms: _269  and  _270
REMARK  118  A    between atoms: _276  and  _278
REMARK  119  A    between atoms: _278  and  _279
REMARK  120  A    between atoms: _278  and  _281
REMARK  121  A    between atoms: _283  and  _285
REMARK  122  A    between atoms: _285  and  _286
REMARK  123  A    between atoms: _289  and  _291
REMARK  124  A    between atoms: _291  and  _292
REMARK  125  A    between atoms: _294  and  _296
REMARK  126  A    between atoms: _296  and  _297
REMARK  127  A    between atoms: _296  and  _299
REMARK  128  A    between atoms: _299  and  _300
REMARK  129  A    between atoms: _300  and  _301
REMARK  130  A    between atoms: _304  and  _306
REMARK  131  A    between atoms: _306  and  _307
REMARK  132  A    between atoms: _306  and  _309
REMARK  133  A    between atoms: _309  and  _310
REMARK  134  A    between atoms: _313  and  _315
REMARK  135  A    between atoms: _315  and  _316
REMARK  136  A    between atoms: _319  and  _321
REMARK  137  A    between atoms: _321  and  _322
REMARK  138  A    between atoms: _321  and  _324
REMARK  139  A    between atoms: _324  and  _325
REMARK  140  A    between atoms: _325  and  _448
REMARK  141  A    between atoms: _326  and  _328
REMARK  142  A    between atoms: _328  and  _329
REMARK  143  A    between atoms: _328  and  _331
REMARK  144  A    between atoms: _331  and  _332
REMARK  145  A    between atoms: _332  and  _333
REMARK  146  A    between atoms: _338  and  _340
REMARK  147  A    between atoms: _340  and  _341
REMARK  148  A    between atoms: _343  and  _345
REMARK  149  A    between atoms: _345  and  _346
REMARK  150  A    between atoms: _345  and  _348
REMARK  151  A    between atoms: _348  and  _349
REMARK  152  A    between atoms: _352  and  _354
REMARK  153  A    between atoms: _354  and  _355
REMARK  154  A    between atoms: _354  and  _357
REMARK  155  A    between atoms: _357  and  _358
REMARK  156  A    between atoms: _360  and  _362
REMARK  157  A    between atoms: _362  and  _363
REMARK  158  A    between atoms: _365  and  _367
REMARK  159  A    between atoms: _367  and  _368
REMARK  160  A    between atoms: _370  and  _372
REMARK  161  A    between atoms: _372  and  _373
REMARK  162  A    between atoms: _372  and  _375
REMARK  163  A    between atoms: _375  and  _376
REMARK  164  A    between atoms: _381  and  _383
REMARK  165  A    between atoms: _383  and  _384
REMARK  166  A    between atoms: _383  and  _386
REMARK  167  A    between atoms: _386  and  _387
REMARK  168  A    between atoms: _390  and  _392
REMARK  169  A    between atoms: _392  and  _393
REMARK  170  A    between atoms: _392  and  _395
REMARK  171  A    between atoms: _398  and  _400
REMARK  172  A    between atoms: _400  and  _401
REMARK  173  A    between atoms: _400  and  _403
REMARK  174  A    between atoms: _403  and  _404
REMARK  175  A    between atoms: _406  and  _408
REMARK  176  A    between atoms: _408  and  _409
REMARK  177  A    between atoms: _408  and  _411
REMARK  178  A    between atoms: _411  and  _412
REMARK  179  A    between atoms: _422  and  _424
REMARK  180  A    between atoms: _424  and  _425
REMARK  181  A    between atoms: _427  and  _429
REMARK  182  A    between atoms: _429  and  _430
REMARK  183  A    between atoms: _429  and  _432
REMARK  184  A    between atoms: _432  and  _433
REMARK  185  A    between atoms: _433  and  _434
REMARK  186  A    between atoms: _437  and  _439
REMARK  187  A    between atoms: _439  and  _440
REMARK  188  A    between atoms: _442  and  _444
REMARK  189  A    between atoms: _444  and  _445
REMARK  190  A    between atoms: _444  and  _447
REMARK  191  A    between atoms: _447  and  _448
REMARK  192  A    between atoms: _449  and  _451
REMARK  193  A    between atoms: _451  and  _452
REMARK  194  A    between atoms: _455  and  _457
REMARK  195  A    between atoms: _457  and  _458
REMARK  196  A    between atoms: _457  and  _460
REMARK  197  A    between atoms: _460  and  _461
REMARK  198  A    between atoms: _461  and  _462
REMARK  199  A    between atoms: _462  and  _463
REMARK  200  A    between atoms: _472  and  _474
REMARK  201  A    between atoms: _474  and  _475
REMARK  202  A    between atoms: _474  and  _477
REMARK  203  A    between atoms: _477  and  _478
REMARK  204  A    between atoms: _478  and  _479
REMARK  205  A    between atoms: _479  and  _480
REMARK  206  A    between atoms: _480  and  _481
REMARK  207  A    between atoms: _485  and  _487
REMARK  208  A    between atoms: _487  and  _488
REMARK  209  A    between atoms: _487  and  _490
REMARK  210  A    between atoms: _490  and  _491
REMARK  211  A    between atoms: _496  and  _497
REMARK  212  A    between atoms: _499  and  _501
REMARK  213  A    between atoms: _501  and  _502
REMARK  214  A    between atoms: _504  and  _506
REMARK  215  A    between atoms: _506  and  _507
REMARK  216  A    between atoms: _506  and  _509
REMARK  217  A    between atoms: _509  and  _510
REMARK  218  A    between atoms: _513  and  _515
REMARK  219  A    between atoms: _515  and  _516
REMARK  220  A    between atoms: _515  and  _518
REMARK  221  A    between atoms: _518  and  _519
REMARK  222  A    between atoms: _524  and  _525
REMARK  223  A    between atoms: _527  and  _529
REMARK  224  A    between atoms: _529  and  _530
REMARK  225  A    between atoms: _529  and  _532
REMARK  226  A    between atoms: _532  and  _533
REMARK                            x       y       z     vdW  Elec       q    Type
REMARK                         _______ _______ _______ _____ _____    ______ ____
ROOT
ATOM      1  O   HOH     1      15.167  65.761   1.035  0.00  0.00    +0.000 OA
ENDROOT
TORSDOF 0
REMARK  Name = ../refined-set-2016/2vwn/2vwn_pocket.pdb
REMARK  226 active torsions:
REMARK  status: ('A' for Active; 'I' for Inactive)
REMARK    1  A    between atoms: _1  and  _5
REMARK    2  A    between atoms: _5  and  _6
REMARK    3  A    between atoms: _5  and  _8
REMARK    4  A    between atoms: _8  and  _9
REMARK    5  A    between atoms: _12  and  _14
REMARK    6  A    between atoms: _14  and  _15
REMARK    7  A    between atoms: _14  and  _17
REMARK    8  A    between atoms: _20  and  _22
REMARK    9  A    between atoms: _22  and  _23
REMARK   10  A    between atoms: _22  and  _25
REMARK   11  A    between atoms: _25  and  _26
REMARK   12  A    between atoms: _31  and  _33
REMARK   13  A    between atoms: _33  and  _34
REMARK   14  A    between atoms: _33  and  _36
REMARK   15  A    between atoms: _36  and  _37
REMARK   16  A    between atoms: _37  and  _38
REMARK   17  A    between atoms: _43  and  _45
REMARK   18  A    between atoms: _45  and  _46
REMARK   19  A    between atoms: _45  and  _48
REMARK   20  A    between atoms: _48  and  _49
REMARK   21  A    between atoms: _52  and  _54
REMARK   22  A    between atoms: _54  and  _55
REMARK   23  A    between atoms: _54  and  _57
REMARK   24  A    between atoms: _57  and  _58
REMARK   25  A    between atoms: _58  and  _59
REMARK   26  A    between atoms: _59  and  _60
REMARK   27  A    between atoms: _60  and  _61
REMARK   28  A    between atoms: _65  and  _67
REMARK   29  A    between atoms: _67  and  _68
REMARK   30  A    between atoms: _67  and  _70
REMARK   31  A    between atoms: _70  and  _71
REMARK   32  A    between atoms: _71  and  _72
REMARK   33  A    between atoms: _75  and  _77
REMARK   34  A    between atoms: _77  and  _78
REMARK   35  A    between atoms: _77  and  _80
REMARK   36  A    between atoms: _80  and  _81
REMARK   37  A    between atoms: _84  and  _86
REMARK   38  A    between atoms: _86  and  _87
REMARK   39  A    between atoms: _86  and  _89
REMARK   40  A    between atoms: _89  and  _90
REMARK   41  A    between atoms: _95  and  _96
REMARK   42  A    between atoms: _98  and  _100
REMARK   43  A    between atoms: _100  and  _101
REMARK   44  A    between atoms: _100  and  _103
REMARK   45  A    between atoms: _103  and  _104
REMARK   46  A    between atoms: _107  and  _109
REMARK   47  A    between atoms: _109  and  _110
REMARK   48  A    between atoms: _109  and  _112
REMARK   49  A    between atoms: _112  and  _113
REMARK   50  A    between atoms: _116  and  _118
REMARK   51  A    between atoms: _118  and  _119
REMARK   52  A    between atoms: _118  and  _121
REMARK   53  A    between atoms: _124  and  _126
REMARK   54  A    between atoms: _126  and  _127
REMARK   55  A    between atoms: _126  and  _129
REMARK   56  A    between atoms: _129  and  _130
REMARK   57  A    between atoms: _130  and  _131
REMARK   58  A    between atoms: _131  and  _132
REMARK   59  A    between atoms: _141  and  _143
REMARK   60  A    between atoms: _143  and  _144
REMARK   61  A    between atoms: _143  and  _146
REMARK   62  A    between atoms: _146  and  _147
REMARK   63  A    between atoms: _152  and  _154
REMARK   64  A    between atoms: _154  and  _155
REMARK   65  A    between atoms: _154  and  _157
REMARK   66  A    between atoms: _157  and  _158
REMARK   67  A    between atoms: _158  and  _159
REMARK   68  A    between atoms: _162  and  _164
REMARK   69  A    between atoms: _164  and  _165
REMARK   70  A    between atoms: _164  and  _167
REMARK   71  A    between atoms: _167  and  _168
REMARK   72  A    between atoms: _168  and  _169
REMARK   73  A    between atoms: _169  and  _170
REMARK   74  A    between atoms: _170  and  _171
REMARK   75  A    between atoms: _175  and  _177
REMARK   76  A    between atoms: _177  and  _178
REMARK   77  A    between atoms: _180  and  _182
REMARK   78  A    between atoms: _182  and  _183
REMARK   79  A    between atoms: _182  and  _185
REMARK   80  A    between atoms: _185  and  _186
REMARK   81  A    between atoms: _186  and  _187
REMARK   82  A    between atoms: _192  and  _194
REMARK   83  A    between atoms: _194  and  _195
REMARK   84  A    between atoms: _194  and  _197
REMARK   85  A    between atoms: _200  and  _202
REMARK   86  A    between atoms: _202  and  _203
REMARK   87  A    between atoms: _202  and  _205
REMARK   88  A    between atoms: _205  and  _206
REMARK   89  A    between atoms: _208  and  _210
REMARK   90  A    between atoms: _210  and  _211
REMARK   91  A    between atoms: _210  and  _213
REMARK   92  A    between atoms: _213  and  _214
REMARK   93  A    between atoms: _216  and  _218
REMARK   94  A    between atoms: _218  and  _219
REMARK   95  A    between atoms: _218  and  _221
REMARK   96  A    between atoms: _221  and  _222
REMARK   97  A    between atoms: _228  and  _230
REMARK   98  A    between atoms: _230  and  _231
REMARK   99  A    between atoms: _230  and  _233
REMARK  100  A    between atoms: _233  and  _234
REMARK  101  A    between atoms: _237  and  _239
REMARK  102  A    between atoms: _239  and  _240
REMARK  103  A    between atoms: _239  and  _242
REMARK  104  A    between atoms: _242  and  _243
REMARK  105  A    between atoms: _246  and  _248
REMARK  106  A    between atoms: _248  and  _249
REMARK  107  A    between atoms: _248  and  _251
REMARK  108  A    between atoms: _251  and  _252
REMARK  109  A    between atoms: _255  and  _257
REMARK  110  A    between atoms: _257  and  _258
REMARK  111  A    between atoms: _257  and  _260
REMARK  112  A    between atoms: _260  and  _261
REMARK  113  A    between atoms: _261  and  _262
REMARK  114  A    between atoms: _264  and  _266
REMARK  115  A    between atoms: _266  and  _267
REMARK  116  A    between atoms: _266  and  _269
REMARK  117  A    between atoms: _269  and  _270
REMARK  118  A    between atoms: _276  and  _278
REMARK  119  A    between atoms: _278  and  _279
REMARK  120  A    between atoms: _278  and  _281
REMARK  121  A    between atoms: _283  and  _285
REMARK  122  A    between atoms: _285  and  _286
REMARK  123  A    between atoms: _289  and  _291
REMARK  124  A    between atoms: _291  and  _292
REMARK  125  A    between atoms: _294  and  _296
REMARK  126  A    between atoms: _296  and  _297
REMARK  127  A    between atoms: _296  and  _299
REMARK  128  A    between atoms: _299  and  _300
REMARK  129  A    between atoms: _300  and  _301
REMARK  130  A    between atoms: _304  and  _306
REMARK  131  A    between atoms: _306  and  _307
REMARK  132  A    between atoms: _306  and  _309
REMARK  133  A    between atoms: _309  and  _310
REMARK  134  A    between atoms: _313  and  _315
REMARK  135  A    between atoms: _315  and  _316
REMARK  136  A    between atoms: _319  and  _321
REMARK  137  A    between atoms: _321  and  _322
REMARK  138  A    between atoms: _321  and  _324
REMARK  139  A    between atoms: _324  and  _325
REMARK  140  A    between atoms: _325  and  _448
REMARK  141  A    between atoms: _326  and  _328
REMARK  142  A    between atoms: _328  and  _329
REMARK  143  A    between atoms: _328  and  _331
REMARK  144  A    between atoms: _331  and  _332
REMARK  145  A    between atoms: _332  and  _333
REMARK  146  A    between atoms: _338  and  _340
REMARK  147  A    between atoms: _340  and  _341
REMARK  148  A    between atoms: _343  and  _345
REMARK  149  A    between atoms: _345  and  _346
REMARK  150  A    between atoms: _345  and  _348
REMARK  151  A    between atoms: _348  and  _349
REMARK  152  A    between atoms: _352  and  _354
REMARK  153  A    between atoms: _354  and  _355
REMARK  154  A    between atoms: _354  and  _357
REMARK  155  A    between atoms: _357  and  _358
REMARK  156  A    between atoms: _360  and  _362
REMARK  157  A    between atoms: _362  and  _363
REMARK  158  A    between atoms: _365  and  _367
REMARK  159  A    between atoms: _367  and  _368
REMARK  160  A    between atoms: _370  and  _372
REMARK  161  A    between atoms: _372  and  _373
REMARK  162  A    between atoms: _372  and  _375
REMARK  163  A    between atoms: _375  and  _376
REMARK  164  A    between atoms: _381  and  _383
REMARK  165  A    between atoms: _383  and  _384
REMARK  166  A    between atoms: _383  and  _386
REMARK  167  A    between atoms: _386  and  _387
REMARK  168  A    between atoms: _390  and  _392
REMARK  169  A    between atoms: _392  and  _393
REMARK  170  A    between atoms: _392  and  _395
REMARK  171  A    between atoms: _398  and  _400
REMARK  172  A    between atoms: _400  and  _401
REMARK  173  A    between atoms: _400  and  _403
REMARK  174  A    between atoms: _403  and  _404
REMARK  175  A    between atoms: _406  and  _408
REMARK  176  A    between atoms: _408  and  _409
REMARK  177  A    between atoms: _408  and  _411
REMARK  178  A    between atoms: _411  and  _412
REMARK  179  A    between atoms: _422  and  _424
REMARK  180  A    between atoms: _424  and  _425
REMARK  181  A    between atoms: _427  and  _429
REMARK  182  A    between atoms: _429  and  _430
REMARK  183  A    between atoms: _429  and  _432
REMARK  184  A    between atoms: _432  and  _433
REMARK  185  A    between atoms: _433  and  _434
REMARK  186  A    between atoms: _437  and  _439
REMARK  187  A    between atoms: _439  and  _440
REMARK  188  A    between atoms: _442  and  _444
REMARK  189  A    between atoms: _444  and  _445
REMARK  190  A    between atoms: _444  and  _447
REMARK  191  A    between atoms: _447  and  _448
REMARK  192  A    between atoms: _449  and  _451
REMARK  193  A    between atoms: _451  and  _452
REMARK  194  A    between atoms: _455  and  _457
REMARK  195  A    between atoms: _457  and  _458
REMARK  196  A    between atoms: _457  and  _460
REMARK  197  A    between atoms: _460  and  _461
REMARK  198  A    between atoms: _461  and  _462
REMARK  199  A    between atoms: _462  and  _463
REMARK  200  A    between atoms: _472  and  _474
REMARK  201  A    between atoms: _474  and  _475
REMARK  202  A    between atoms: _474  and  _477
REMARK  203  A    between atoms: _477  and  _478
REMARK  204  A    between atoms: _478  and  _479
REMARK  205  A    between atoms: _479  and  _480
REMARK  206  A    between atoms: _480  and  _481
REMARK  207  A    between atoms: _485  and  _487
REMARK  208  A    between atoms: _487  and  _488
REMARK  209  A    between atoms: _487  and  _490
REMARK  210  A    between atoms: _490  and  _491
REMARK  211  A    between atoms: _496  and  _497
REMARK  212  A    between atoms: _499  and  _501
REMARK  213  A    between atoms: _501  and  _502
REMARK  214  A    between atoms: _504  and  _506
REMARK  215  A    between atoms: _506  and  _507
REMARK  216  A    between atoms: _506  and  _509
REMARK  217  A    between atoms: _509  and  _510
REMARK  218  A    between atoms: _513  and  _515
REMARK  219  A    between atoms: _515  and  _516
REMARK  220  A    between atoms: _515  and  _518
REMARK  221  A    between atoms: _518  and  _519
REMARK  222  A    between atoms: _524  and  _525
REMARK  223  A    between atoms: _527  and  _529
REMARK  224  A    between atoms: _529  and  _530
REMARK  225  A    between atoms: _529  and  _532
REMARK  226  A    between atoms: _532  and  _533
REMARK                            x       y       z     vdW  Elec       q    Type
REMARK                         _______ _______ _______ _____ _____    ______ ____
ROOT
ATOM      1  O   HOH     1      12.703  62.823   1.435  0.00  0.00    +0.000 OA
ENDROOT
TORSDOF 0
REMARK  Name = ../refined-set-2016/2vwn/2vwn_pocket.pdb
REMARK  226 active torsions:
REMARK  status: ('A' for Active; 'I' for Inactive)
REMARK    1  A    between atoms: _1  and  _5
REMARK    2  A    between atoms: _5  and  _6
REMARK    3  A    between atoms: _5  and  _8
REMARK    4  A    between atoms: _8  and  _9
REMARK    5  A    between atoms: _12  and  _14
REMARK    6  A    between atoms: _14  and  _15
REMARK    7  A    between atoms: _14  and  _17
REMARK    8  A    between atoms: _20  and  _22
REMARK    9  A    between atoms: _22  and  _23
REMARK   10  A    between atoms: _22  and  _25
REMARK   11  A    between atoms: _25  and  _26
REMARK   12  A    between atoms: _31  and  _33
REMARK   13  A    between atoms: _33  and  _34
REMARK   14  A    between atoms: _33  and  _36
REMARK   15  A    between atoms: _36  and  _37
REMARK   16  A    between atoms: _37  and  _38
REMARK   17  A    between atoms: _43  and  _45
REMARK   18  A    between atoms: _45  and  _46
REMARK   19  A    between atoms: _45  and  _48
REMARK   20  A    between atoms: _48  and  _49
REMARK   21  A    between atoms: _52  and  _54
REMARK   22  A    between atoms: _54  and  _55
REMARK   23  A    between atoms: _54  and  _57
REMARK   24  A    between atoms: _57  and  _58
REMARK   25  A    between atoms: _58  and  _59
REMARK   26  A    between atoms: _59  and  _60
REMARK   27  A    between atoms: _60  and  _61
REMARK   28  A    between atoms: _65  and  _67
REMARK   29  A    between atoms: _67  and  _68
REMARK   30  A    between atoms: _67  and  _70
REMARK   31  A    between atoms: _70  and  _71
REMARK   32  A    between atoms: _71  and  _72
REMARK   33  A    between atoms: _75  and  _77
REMARK   34  A    between atoms: _77  and  _78
REMARK   35  A    between atoms: _77  and  _80
REMARK   36  A    between atoms: _80  and  _81
REMARK   37  A    between atoms: _84  and  _86
REMARK   38  A    between atoms: _86  and  _87
REMARK   39  A    between atoms: _86  and  _89
REMARK   40  A    between atoms: _89  and  _90
REMARK   41  A    between atoms: _95  and  _96
REMARK   42  A    between atoms: _98  and  _100
REMARK   43  A    between atoms: _100  and  _101
REMARK   44  A    between atoms: _100  and  _103
REMARK   45  A    between atoms: _103  and  _104
REMARK   46  A    between atoms: _107  and  _109
REMARK   47  A    between atoms: _109  and  _110
REMARK   48  A    between atoms: _109  and  _112
REMARK   49  A    between atoms: _112  and  _113
REMARK   50  A    between atoms: _116  and  _118
REMARK   51  A    between atoms: _118  and  _119
REMARK   52  A    between atoms: _118  and  _121
REMARK   53  A    between atoms: _124  and  _126
REMARK   54  A    between atoms: _126  and  _127
REMARK   55  A    between atoms: _126  and  _129
REMARK   56  A    between atoms: _129  and  _130
REMARK   57  A    between atoms: _130  and  _131
REMARK   58  A    between atoms: _131  and  _132
REMARK   59  A    between atoms: _141  and  _143
REMARK   60  A    between atoms: _143  and  _144
REMARK   61  A    between atoms: _143  and  _146
REMARK   62  A    between atoms: _146  and  _147
REMARK   63  A    between atoms: _152  and  _154
REMARK   64  A    between atoms: _154  and  _155
REMARK   65  A    between atoms: _154  and  _157
REMARK   66  A    between atoms: _157  and  _158
REMARK   67  A    between atoms: _158  and  _159
REMARK   68  A    between atoms: _162  and  _164
REMARK   69  A    between atoms: _164  and  _165
REMARK   70  A    between atoms: _164  and  _167
REMARK   71  A    between atoms: _167  and  _168
REMARK   72  A    between atoms: _168  and  _169
REMARK   73  A    between atoms: _169  and  _170
REMARK   74  A    between atoms: _170  and  _171
REMARK   75  A    between atoms: _175  and  _177
REMARK   76  A    between atoms: _177  and  _178
REMARK   77  A    between atoms: _180  and  _182
REMARK   78  A    between atoms: _182  and  _183
REMARK   79  A    between atoms: _182  and  _185
REMARK   80  A    between atoms: _185  and  _186
REMARK   81  A    between atoms: _186  and  _187
REMARK   82  A    between atoms: _192  and  _194
REMARK   83  A    between atoms: _194  and  _195
REMARK   84  A    between atoms: _194  and  _197
REMARK   85  A    between atoms: _200  and  _202
REMARK   86  A    between atoms: _202  and  _203
REMARK   87  A    between atoms: _202  and  _205
REMARK   88  A    between atoms: _205  and  _206
REMARK   89  A    between atoms: _208  and  _210
REMARK   90  A    between atoms: _210  and  _211
REMARK   91  A    between atoms: _210  and  _213
REMARK   92  A    between atoms: _213  and  _214
REMARK   93  A    between atoms: _216  and  _218
REMARK   94  A    between atoms: _218  and  _219
REMARK   95  A    between atoms: _218  and  _221
REMARK   96  A    between atoms: _221  and  _222
REMARK   97  A    between atoms: _228  and  _230
REMARK   98  A    between atoms: _230  and  _231
REMARK   99  A    between atoms: _230  and  _233
REMARK  100  A    between atoms: _233  and  _234
REMARK  101  A    between atoms: _237  and  _239
REMARK  102  A    between atoms: _239  and  _240
REMARK  103  A    between atoms: _239  and  _242
REMARK  104  A    between atoms: _242  and  _243
REMARK  105  A    between atoms: _246  and  _248
REMARK  106  A    between atoms: _248  and  _249
REMARK  107  A    between atoms: _248  and  _251
REMARK  108  A    between atoms: _251  and  _252
REMARK  109  A    between atoms: _255  and  _257
REMARK  110  A    between atoms: _257  and  _258
REMARK  111  A    between atoms: _257  and  _260
REMARK  112  A    between atoms: _260  and  _261
REMARK  113  A    between atoms: _261  and  _262
REMARK  114  A    between atoms: _264  and  _266
REMARK  115  A    between atoms: _266  and  _267
REMARK  116  A    between atoms: _266  and  _269
REMARK  117  A    between atoms: _269  and  _270
REMARK  118  A    between atoms: _276  and  _278
REMARK  119  A    between atoms: _278  and  _279
REMARK  120  A    between atoms: _278  and  _281
REMARK  121  A    between atoms: _283  and  _285
REMARK  122  A    between atoms: _285  and  _286
REMARK  123  A    between atoms: _289  and  _291
REMARK  124  A    between atoms: _291  and  _292
REMARK  125  A    between atoms: _294  and  _296
REMARK  126  A    between atoms: _296  and  _297
REMARK  127  A    between atoms: _296  and  _299
REMARK  128  A    between atoms: _299  and  _300
REMARK  129  A    between atoms: _300  and  _301
REMARK  130  A    between atoms: _304  and  _306
REMARK  131  A    between atoms: _306  and  _307
REMARK  132  A    between atoms: _306  and  _309
REMARK  133  A    between atoms: _309  and  _310
REMARK  134  A    between atoms: _313  and  _315
REMARK  135  A    between atoms: _315  and  _316
REMARK  136  A    between atoms: _319  and  _321
REMARK  137  A    between atoms: _321  and  _322
REMARK  138  A    between atoms: _321  and  _324
REMARK  139  A    between atoms: _324  and  _325
REMARK  140  A    between atoms: _325  and  _448
REMARK  141  A    between atoms: _326  and  _328
REMARK  142  A    between atoms: _328  and  _329
REMARK  143  A    between atoms: _328  and  _331
REMARK  144  A    between atoms: _331  and  _332
REMARK  145  A    between atoms: _332  and  _333
REMARK  146  A    between atoms: _338  and  _340
REMARK  147  A    between atoms: _340  and  _341
REMARK  148  A    between atoms: _343  and  _345
REMARK  149  A    between atoms: _345  and  _346
REMARK  150  A    between atoms: _345  and  _348
REMARK  151  A    between atoms: _348  and  _349
REMARK  152  A    between atoms: _352  and  _354
REMARK  153  A    between atoms: _354  and  _355
REMARK  154  A    between atoms: _354  and  _357
REMARK  155  A    between atoms: _357  and  _358
REMARK  156  A    between atoms: _360  and  _362
REMARK  157  A    between atoms: _362  and  _363
REMARK  158  A    between atoms: _365  and  _367
REMARK  159  A    between atoms: _367  and  _368
REMARK  160  A    between atoms: _370  and  _372
REMARK  161  A    between atoms: _372  and  _373
REMARK  162  A    between atoms: _372  and  _375
REMARK  163  A    between atoms: _375  and  _376
REMARK  164  A    between atoms: _381  and  _383
REMARK  165  A    between atoms: _383  and  _384
REMARK  166  A    between atoms: _383  and  _386
REMARK  167  A    between atoms: _386  and  _387
REMARK  168  A    between atoms: _390  and  _392
REMARK  169  A    between atoms: _392  and  _393
REMARK  170  A    between atoms: _392  and  _395
REMARK  171  A    between atoms: _398  and  _400
REMARK  172  A    between atoms: _400  and  _401
REMARK  173  A    between atoms: _400  and  _403
REMARK  174  A    between atoms: _403  and  _404
REMARK  175  A    between atoms: _406  and  _408
REMARK  176  A    between atoms: _408  and  _409
REMARK  177  A    between atoms: _408  and  _411
REMARK  178  A    between atoms: _411  and  _412
REMARK  179  A    between atoms: _422  and  _424
REMARK  180  A    between atoms: _424  and  _425
REMARK  181  A    between atoms: _427  and  _429
REMARK  182  A    between atoms: _429  and  _430
REMARK  183  A    between atoms: _429  and  _432
REMARK  184  A    between atoms: _432  and  _433
REMARK  185  A    between atoms: _433  and  _434
REMARK  186  A    between atoms: _437  and  _439
REMARK  187  A    between atoms: _439  and  _440
REMARK  188  A    between atoms: _442  and  _444
REMARK  189  A    between atoms: _444  and  _445
REMARK  190  A    between atoms: _444  and  _447
REMARK  191  A    between atoms: _447  and  _448
REMARK  192  A    between atoms: _449  and  _451
REMARK  193  A    between atoms: _451  and  _452
REMARK  194  A    between atoms: _455  and  _457
REMARK  195  A    between atoms: _457  and  _458
REMARK  196  A    between atoms: _457  and  _460
REMARK  197  A    between atoms: _460  and  _461
REMARK  198  A    between atoms: _461  and  _462
REMARK  199  A    between atoms: _462  and  _463
REMARK  200  A    between atoms: _472  and  _474
REMARK  201  A    between atoms: _474  and  _475
REMARK  202  A    between atoms: _474  and  _477
REMARK  203  A    between atoms: _477  and  _478
REMARK  204  A    between atoms: _478  and  _479
REMARK  205  A    between atoms: _479  and  _480
REMARK  206  A    between atoms: _480  and  _481
REMARK  207  A    between atoms: _485  and  _487
REMARK  208  A    between atoms: _487  and  _488
REMARK  209  A    between atoms: _487  and  _490
REMARK  210  A    between atoms: _490  and  _491
REMARK  211  A    between atoms: _496  and  _497
REMARK  212  A    between atoms: _499  and  _501
REMARK  213  A    between atoms: _501  and  _502
REMARK  214  A    between atoms: _504  and  _506
REMARK  215  A    between atoms: _506  and  _507
REMARK  216  A    between atoms: _506  and  _509
REMARK  217  A    between atoms: _509  and  _510
REMARK  218  A    between atoms: _513  and  _515
REMARK  219  A    between atoms: _515  and  _516
REMARK  220  A    between atoms: _515  and  _518
REMARK  221  A    between atoms: _518  and  _519
REMARK  222  A    between atoms: _524  and  _525
REMARK  223  A    between atoms: _527  and  _529
REMARK  224  A    between atoms: _529  and  _530
REMARK  225  A    between atoms: _529  and  _532
REMARK  226  A    between atoms: _532  and  _533
REMARK                            x       y       z     vdW  Elec       q    Type
REMARK                         _______ _______ _______ _____ _____    ______ ____
ROOT
ATOM      1  O   HOH     1       8.408  59.462  10.865  0.00  0.00    +0.000 OA
ENDROOT
TORSDOF 0
REMARK  Name = ../refined-set-2016/2vwn/2vwn_pocket.pdb
REMARK  226 active torsions:
REMARK  status: ('A' for Active; 'I' for Inactive)
REMARK    1  A    between atoms: _1  and  _5
REMARK    2  A    between atoms: _5  and  _6
REMARK    3  A    between atoms: _5  and  _8
REMARK    4  A    between atoms: _8  and  _9
REMARK    5  A    between atoms: _12  and  _14
REMARK    6  A    between atoms: _14  and  _15
REMARK    7  A    between atoms: _14  and  _17
REMARK    8  A    between atoms: _20  and  _22
REMARK    9  A    between atoms: _22  and  _23
REMARK   10  A    between atoms: _22  and  _25
REMARK   11  A    between atoms: _25  and  _26
REMARK   12  A    between atoms: _31  and  _33
REMARK   13  A    between atoms: _33  and  _34
REMARK   14  A    between atoms: _33  and  _36
REMARK   15  A    between atoms: _36  and  _37
REMARK   16  A    between atoms: _37  and  _38
REMARK   17  A    between atoms: _43  and  _45
REMARK   18  A    between atoms: _45  and  _46
REMARK   19  A    between atoms: _45  and  _48
REMARK   20  A    between atoms: _48  and  _49
REMARK   21  A    between atoms: _52  and  _54
REMARK   22  A    between atoms: _54  and  _55
REMARK   23  A    between atoms: _54  and  _57
REMARK   24  A    between atoms: _57  and  _58
REMARK   25  A    between atoms: _58  and  _59
REMARK   26  A    between atoms: _59  and  _60
REMARK   27  A    between atoms: _60  and  _61
REMARK   28  A    between atoms: _65  and  _67
REMARK   29  A    between atoms: _67  and  _68
REMARK   30  A    between atoms: _67  and  _70
REMARK   31  A    between atoms: _70  and  _71
REMARK   32  A    between atoms: _71  and  _72
REMARK   33  A    between atoms: _75  and  _77
REMARK   34  A    between atoms: _77  and  _78
REMARK   35  A    between atoms: _77  and  _80
REMARK   36  A    between atoms: _80  and  _81
REMARK   37  A    between atoms: _84  and  _86
REMARK   38  A    between atoms: _86  and  _87
REMARK   39  A    between atoms: _86  and  _89
REMARK   40  A    between atoms: _89  and  _90
REMARK   41  A    between atoms: _95  and  _96
REMARK   42  A    between atoms: _98  and  _100
REMARK   43  A    between atoms: _100  and  _101
REMARK   44  A    between atoms: _100  and  _103
REMARK   45  A    between atoms: _103  and  _104
REMARK   46  A    between atoms: _107  and  _109
REMARK   47  A    between atoms: _109  and  _110
REMARK   48  A    between atoms: _109  and  _112
REMARK   49  A    between atoms: _112  and  _113
REMARK   50  A    between atoms: _116  and  _118
REMARK   51  A    between atoms: _118  and  _119
REMARK   52  A    between atoms: _118  and  _121
REMARK   53  A    between atoms: _124  and  _126
REMARK   54  A    between atoms: _126  and  _127
REMARK   55  A    between atoms: _126  and  _129
REMARK   56  A    between atoms: _129  and  _130
REMARK   57  A    between atoms: _130  and  _131
REMARK   58  A    between atoms: _131  and  _132
REMARK   59  A    between atoms: _141  and  _143
REMARK   60  A    between atoms: _143  and  _144
REMARK   61  A    between atoms: _143  and  _146
REMARK   62  A    between atoms: _146  and  _147
REMARK   63  A    between atoms: _152  and  _154
REMARK   64  A    between atoms: _154  and  _155
REMARK   65  A    between atoms: _154  and  _157
REMARK   66  A    between atoms: _157  and  _158
REMARK   67  A    between atoms: _158  and  _159
REMARK   68  A    between atoms: _162  and  _164
REMARK   69  A    between atoms: _164  and  _165
REMARK   70  A    between atoms: _164  and  _167
REMARK   71  A    between atoms: _167  and  _168
REMARK   72  A    between atoms: _168  and  _169
REMARK   73  A    between atoms: _169  and  _170
REMARK   74  A    between atoms: _170  and  _171
REMARK   75  A    between atoms: _175  and  _177
REMARK   76  A    between atoms: _177  and  _178
REMARK   77  A    between atoms: _180  and  _182
REMARK   78  A    between atoms: _182  and  _183
REMARK   79  A    between atoms: _182  and  _185
REMARK   80  A    between atoms: _185  and  _186
REMARK   81  A    between atoms: _186  and  _187
REMARK   82  A    between atoms: _192  and  _194
REMARK   83  A    between atoms: _194  and  _195
REMARK   84  A    between atoms: _194  and  _197
REMARK   85  A    between atoms: _200  and  _202
REMARK   86  A    between atoms: _202  and  _203
REMARK   87  A    between atoms: _202  and  _205
REMARK   88  A    between atoms: _205  and  _206
REMARK   89  A    between atoms: _208  and  _210
REMARK   90  A    between atoms: _210  and  _211
REMARK   91  A    between atoms: _210  and  _213
REMARK   92  A    between atoms: _213  and  _214
REMARK   93  A    between atoms: _216  and  _218
REMARK   94  A    between atoms: _218  and  _219
REMARK   95  A    between atoms: _218  and  _221
REMARK   96  A    between atoms: _221  and  _222
REMARK   97  A    between atoms: _228  and  _230
REMARK   98  A    between atoms: _230  and  _231
REMARK   99  A    between atoms: _230  and  _233
REMARK  100  A    between atoms: _233  and  _234
REMARK  101  A    between atoms: _237  and  _239
REMARK  102  A    between atoms: _239  and  _240
REMARK  103  A    between atoms: _239  and  _242
REMARK  104  A    between atoms: _242  and  _243
REMARK  105  A    between atoms: _246  and  _248
REMARK  106  A    between atoms: _248  and  _249
REMARK  107  A    between atoms: _248  and  _251
REMARK  108  A    between atoms: _251  and  _252
REMARK  109  A    between atoms: _255  and  _257
REMARK  110  A    between atoms: _257  and  _258
REMARK  111  A    between atoms: _257  and  _260
REMARK  112  A    between atoms: _260  and  _261
REMARK  113  A    between atoms: _261  and  _262
REMARK  114  A    between atoms: _264  and  _266
REMARK  115  A    between atoms: _266  and  _267
REMARK  116  A    between atoms: _266  and  _269
REMARK  117  A    between atoms: _269  and  _270
REMARK  118  A    between atoms: _276  and  _278
REMARK  119  A    between atoms: _278  and  _279
REMARK  120  A    between atoms: _278  and  _281
REMARK  121  A    between atoms: _283  and  _285
REMARK  122  A    between atoms: _285  and  _286
REMARK  123  A    between atoms: _289  and  _291
REMARK  124  A    between atoms: _291  and  _292
REMARK  125  A    between atoms: _294  and  _296
REMARK  126  A    between atoms: _296  and  _297
REMARK  127  A    between atoms: _296  and  _299
REMARK  128  A    between atoms: _299  and  _300
REMARK  129  A    between atoms: _300  and  _301
REMARK  130  A    between atoms: _304  and  _306
REMARK  131  A    between atoms: _306  and  _307
REMARK  132  A    between atoms: _306  and  _309
REMARK  133  A    between atoms: _309  and  _310
REMARK  134  A    between atoms: _313  and  _315
REMARK  135  A    between atoms: _315  and  _316
REMARK  136  A    between atoms: _319  and  _321
REMARK  137  A    between atoms: _321  and  _322
REMARK  138  A    between atoms: _321  and  _324
REMARK  139  A    between atoms: _324  and  _325
REMARK  140  A    between atoms: _325  and  _448
REMARK  141  A    between atoms: _326  and  _328
REMARK  142  A    between atoms: _328  and  _329
REMARK  143  A    between atoms: _328  and  _331
REMARK  144  A    between atoms: _331  and  _332
REMARK  145  A    between atoms: _332  and  _333
REMARK  146  A    between atoms: _338  and  _340
REMARK  147  A    between atoms: _340  and  _341
REMARK  148  A    between atoms: _343  and  _345
REMARK  149  A    between atoms: _345  and  _346
REMARK  150  A    between atoms: _345  and  _348
REMARK  151  A    between atoms: _348  and  _349
REMARK  152  A    between atoms: _352  and  _354
REMARK  153  A    between atoms: _354  and  _355
REMARK  154  A    between atoms: _354  and  _357
REMARK  155  A    between atoms: _357  and  _358
REMARK  156  A    between atoms: _360  and  _362
REMARK  157  A    between atoms: _362  and  _363
REMARK  158  A    between atoms: _365  and  _367
REMARK  159  A    between atoms: _367  and  _368
REMARK  160  A    between atoms: _370  and  _372
REMARK  161  A    between atoms: _372  and  _373
REMARK  162  A    between atoms: _372  and  _375
REMARK  163  A    between atoms: _375  and  _376
REMARK  164  A    between atoms: _381  and  _383
REMARK  165  A    between atoms: _383  and  _384
REMARK  166  A    between atoms: _383  and  _386
REMARK  167  A    between atoms: _386  and  _387
REMARK  168  A    between atoms: _390  and  _392
REMARK  169  A    between atoms: _392  and  _393
REMARK  170  A    between atoms: _392  and  _395
REMARK  171  A    between atoms: _398  and  _400
REMARK  172  A    between atoms: _400  and  _401
REMARK  173  A    between atoms: _400  and  _403
REMARK  174  A    between atoms: _403  and  _404
REMARK  175  A    between atoms: _406  and  _408
REMARK  176  A    between atoms: _408  and  _409
REMARK  177  A    between atoms: _408  and  _411
REMARK  178  A    between atoms: _411  and  _412
REMARK  179  A    between atoms: _422  and  _424
REMARK  180  A    between atoms: _424  and  _425
REMARK  181  A    between atoms: _427  and  _429
REMARK  182  A    between atoms: _429  and  _430
REMARK  183  A    between atoms: _429  and  _432
REMARK  184  A    between atoms: _432  and  _433
REMARK  185  A    between atoms: _433  and  _434
REMARK  186  A    between atoms: _437  and  _439
REMARK  187  A    between atoms: _439  and  _440
REMARK  188  A    between atoms: _442  and  _444
REMARK  189  A    between atoms: _444  and  _445
REMARK  190  A    between atoms: _444  and  _447
REMARK  191  A    between atoms: _447  and  _448
REMARK  192  A    between atoms: _449  and  _451
REMARK  193  A    between atoms: _451  and  _452
REMARK  194  A    between atoms: _455  and  _457
REMARK  195  A    between atoms: _457  and  _458
REMARK  196  A    between atoms: _457  and  _460
REMARK  197  A    between atoms: _460  and  _461
REMARK  198  A    between atoms: _461  and  _462
REMARK  199  A    between atoms: _462  and  _463
REMARK  200  A    between atoms: _472  and  _474
REMARK  201  A    between atoms: _474  and  _475
REMARK  202  A    between atoms: _474  and  _477
REMARK  203  A    between atoms: _477  and  _478
REMARK  204  A    between atoms: _478  and  _479
REMARK  205  A    between atoms: _479  and  _480
REMARK  206  A    between atoms: _480  and  _481
REMARK  207  A    between atoms: _485  and  _487
REMARK  208  A    between atoms: _487  and  _488
REMARK  209  A    between atoms: _487  and  _490
REMARK  210  A    between atoms: _490  and  _491
REMARK  211  A    between atoms: _496  and  _497
REMARK  212  A    between atoms: _499  and  _501
REMARK  213  A    between atoms: _501  and  _502
REMARK  214  A    between atoms: _504  and  _506
REMARK  215  A    between atoms: _506  and  _507
REMARK  216  A    between atoms: _506  and  _509
REMARK  217  A    between atoms: _509  and  _510
REMARK  218  A    between atoms: _513  and  _515
REMARK  219  A    between atoms: _515  and  _516
REMARK  220  A    between atoms: _515  and  _518
REMARK  221  A    between atoms: _518  and  _519
REMARK  222  A    between atoms: _524  and  _525
REMARK  223  A    between atoms: _527  and  _529
REMARK  224  A    between atoms: _529  and  _530
REMARK  225  A    between atoms: _529  and  _532
REMARK  226  A    between atoms: _532  and  _533
REMARK                            x       y       z     vdW  Elec       q    Type
REMARK                         _______ _______ _______ _____ _____    ______ ____
ROOT
ATOM      1  O   HOH     1      10.828  66.297  11.143  0.00  0.00    +0.000 OA
ENDROOT
TORSDOF 0
REMARK  Name = ../refined-set-2016/2vwn/2vwn_pocket.pdb
REMARK  226 active torsions:
REMARK  status: ('A' for Active; 'I' for Inactive)
REMARK    1  A    between atoms: _1  and  _5
REMARK    2  A    between atoms: _5  and  _6
REMARK    3  A    between atoms: _5  and  _8
REMARK    4  A    between atoms: _8  and  _9
REMARK    5  A    between atoms: _12  and  _14
REMARK    6  A    between atoms: _14  and  _15
REMARK    7  A    between atoms: _14  and  _17
REMARK    8  A    between atoms: _20  and  _22
REMARK    9  A    between atoms: _22  and  _23
REMARK   10  A    between atoms: _22  and  _25
REMARK   11  A    between atoms: _25  and  _26
REMARK   12  A    between atoms: _31  and  _33
REMARK   13  A    between atoms: _33  and  _34
REMARK   14  A    between atoms: _33  and  _36
REMARK   15  A    between atoms: _36  and  _37
REMARK   16  A    between atoms: _37  and  _38
REMARK   17  A    between atoms: _43  and  _45
REMARK   18  A    between atoms: _45  and  _46
REMARK   19  A    between atoms: _45  and  _48
REMARK   20  A    between atoms: _48  and  _49
REMARK   21  A    between atoms: _52  and  _54
REMARK   22  A    between atoms: _54  and  _55
REMARK   23  A    between atoms: _54  and  _57
REMARK   24  A    between atoms: _57  and  _58
REMARK   25  A    between atoms: _58  and  _59
REMARK   26  A    between atoms: _59  and  _60
REMARK   27  A    between atoms: _60  and  _61
REMARK   28  A    between atoms: _65  and  _67
REMARK   29  A    between atoms: _67  and  _68
REMARK   30  A    between atoms: _67  and  _70
REMARK   31  A    between atoms: _70  and  _71
REMARK   32  A    between atoms: _71  and  _72
REMARK   33  A    between atoms: _75  and  _77
REMARK   34  A    between atoms: _77  and  _78
REMARK   35  A    between atoms: _77  and  _80
REMARK   36  A    between atoms: _80  and  _81
REMARK   37  A    between atoms: _84  and  _86
REMARK   38  A    between atoms: _86  and  _87
REMARK   39  A    between atoms: _86  and  _89
REMARK   40  A    between atoms: _89  and  _90
REMARK   41  A    between atoms: _95  and  _96
REMARK   42  A    between atoms: _98  and  _100
REMARK   43  A    between atoms: _100  and  _101
REMARK   44  A    between atoms: _100  and  _103
REMARK   45  A    between atoms: _103  and  _104
REMARK   46  A    between atoms: _107  and  _109
REMARK   47  A    between atoms: _109  and  _110
REMARK   48  A    between atoms: _109  and  _112
REMARK   49  A    between atoms: _112  and  _113
REMARK   50  A    between atoms: _116  and  _118
REMARK   51  A    between atoms: _118  and  _119
REMARK   52  A    between atoms: _118  and  _121
REMARK   53  A    between atoms: _124  and  _126
REMARK   54  A    between atoms: _126  and  _127
REMARK   55  A    between atoms: _126  and  _129
REMARK   56  A    between atoms: _129  and  _130
REMARK   57  A    between atoms: _130  and  _131
REMARK   58  A    between atoms: _131  and  _132
REMARK   59  A    between atoms: _141  and  _143
REMARK   60  A    between atoms: _143  and  _144
REMARK   61  A    between atoms: _143  and  _146
REMARK   62  A    between atoms: _146  and  _147
REMARK   63  A    between atoms: _152  and  _154
REMARK   64  A    between atoms: _154  and  _155
REMARK   65  A    between atoms: _154  and  _157
REMARK   66  A    between atoms: _157  and  _158
REMARK   67  A    between atoms: _158  and  _159
REMARK   68  A    between atoms: _162  and  _164
REMARK   69  A    between atoms: _164  and  _165
REMARK   70  A    between atoms: _164  and  _167
REMARK   71  A    between atoms: _167  and  _168
REMARK   72  A    between atoms: _168  and  _169
REMARK   73  A    between atoms: _169  and  _170
REMARK   74  A    between atoms: _170  and  _171
REMARK   75  A    between atoms: _175  and  _177
REMARK   76  A    between atoms: _177  and  _178
REMARK   77  A    between atoms: _180  and  _182
REMARK   78  A    between atoms: _182  and  _183
REMARK   79  A    between atoms: _182  and  _185
REMARK   80  A    between atoms: _185  and  _186
REMARK   81  A    between atoms: _186  and  _187
REMARK   82  A    between atoms: _192  and  _194
REMARK   83  A    between atoms: _194  and  _195
REMARK   84  A    between atoms: _194  and  _197
REMARK   85  A    between atoms: _200  and  _202
REMARK   86  A    between atoms: _202  and  _203
REMARK   87  A    between atoms: _202  and  _205
REMARK   88  A    between atoms: _205  and  _206
REMARK   89  A    between atoms: _208  and  _210
REMARK   90  A    between atoms: _210  and  _211
REMARK   91  A    between atoms: _210  and  _213
REMARK   92  A    between atoms: _213  and  _214
REMARK   93  A    between atoms: _216  and  _218
REMARK   94  A    between atoms: _218  and  _219
REMARK   95  A    between atoms: _218  and  _221
REMARK   96  A    between atoms: _221  and  _222
REMARK   97  A    between atoms: _228  and  _230
REMARK   98  A    between atoms: _230  and  _231
REMARK   99  A    between atoms: _230  and  _233
REMARK  100  A    between atoms: _233  and  _234
REMARK  101  A    between atoms: _237  and  _239
REMARK  102  A    between atoms: _239  and  _240
REMARK  103  A    between atoms: _239  and  _242
REMARK  104  A    between atoms: _242  and  _243
REMARK  105  A    between atoms: _246  and  _248
REMARK  106  A    between atoms: _248  and  _249
REMARK  107  A    between atoms: _248  and  _251
REMARK  108  A    between atoms: _251  and  _252
REMARK  109  A    between atoms: _255  and  _257
REMARK  110  A    between atoms: _257  and  _258
REMARK  111  A    between atoms: _257  and  _260
REMARK  112  A    between atoms: _260  and  _261
REMARK  113  A    between atoms: _261  and  _262
REMARK  114  A    between atoms: _264  and  _266
REMARK  115  A    between atoms: _266  and  _267
REMARK  116  A    between atoms: _266  and  _269
REMARK  117  A    between atoms: _269  and  _270
REMARK  118  A    between atoms: _276  and  _278
REMARK  119  A    between atoms: _278  and  _279
REMARK  120  A    between atoms: _278  and  _281
REMARK  121  A    between atoms: _283  and  _285
REMARK  122  A    between atoms: _285  and  _286
REMARK  123  A    between atoms: _289  and  _291
REMARK  124  A    between atoms: _291  and  _292
REMARK  125  A    between atoms: _294  and  _296
REMARK  126  A    between atoms: _296  and  _297
REMARK  127  A    between atoms: _296  and  _299
REMARK  128  A    between atoms: _299  and  _300
REMARK  129  A    between atoms: _300  and  _301
REMARK  130  A    between atoms: _304  and  _306
REMARK  131  A    between atoms: _306  and  _307
REMARK  132  A    between atoms: _306  and  _309
REMARK  133  A    between atoms: _309  and  _310
REMARK  134  A    between atoms: _313  and  _315
REMARK  135  A    between atoms: _315  and  _316
REMARK  136  A    between atoms: _319  and  _321
REMARK  137  A    between atoms: _321  and  _322
REMARK  138  A    between atoms: _321  and  _324
REMARK  139  A    between atoms: _324  and  _325
REMARK  140  A    between atoms: _325  and  _448
REMARK  141  A    between atoms: _326  and  _328
REMARK  142  A    between atoms: _328  and  _329
REMARK  143  A    between atoms: _328  and  _331
REMARK  144  A    between atoms: _331  and  _332
REMARK  145  A    between atoms: _332  and  _333
REMARK  146  A    between atoms: _338  and  _340
REMARK  147  A    between atoms: _340  and  _341
REMARK  148  A    between atoms: _343  and  _345
REMARK  149  A    between atoms: _345  and  _346
REMARK  150  A    between atoms: _345  and  _348
REMARK  151  A    between atoms: _348  and  _349
REMARK  152  A    between atoms: _352  and  _354
REMARK  153  A    between atoms: _354  and  _355
REMARK  154  A    between atoms: _354  and  _357
REMARK  155  A    between atoms: _357  and  _358
REMARK  156  A    between atoms: _360  and  _362
REMARK  157  A    between atoms: _362  and  _363
REMARK  158  A    between atoms: _365  and  _367
REMARK  159  A    between atoms: _367  and  _368
REMARK  160  A    between atoms: _370  and  _372
REMARK  161  A    between atoms: _372  and  _373
REMARK  162  A    between atoms: _372  and  _375
REMARK  163  A    between atoms: _375  and  _376
REMARK  164  A    between atoms: _381  and  _383
REMARK  165  A    between atoms: _383  and  _384
REMARK  166  A    between atoms: _383  and  _386
REMARK  167  A    between atoms: _386  and  _387
REMARK  168  A    between atoms: _390  and  _392
REMARK  169  A    between atoms: _392  and  _393
REMARK  170  A    between atoms: _392  and  _395
REMARK  171  A    between atoms: _398  and  _400
REMARK  172  A    between atoms: _400  and  _401
REMARK  173  A    between atoms: _400  and  _403
REMARK  174  A    between atoms: _403  and  _404
REMARK  175  A    between atoms: _406  and  _408
REMARK  176  A    between atoms: _408  and  _409
REMARK  177  A    between atoms: _408  and  _411
REMARK  178  A    between atoms: _411  and  _412
REMARK  179  A    between atoms: _422  and  _424
REMARK  180  A    between atoms: _424  and  _425
REMARK  181  A    between atoms: _427  and  _429
REMARK  182  A    between atoms: _429  and  _430
REMARK  183  A    between atoms: _429  and  _432
REMARK  184  A    between atoms: _432  and  _433
REMARK  185  A    between atoms: _433  and  _434
REMARK  186  A    between atoms: _437  and  _439
REMARK  187  A    between atoms: _439  and  _440
REMARK  188  A    between atoms: _442  and  _444
REMARK  189  A    between atoms: _444  and  _445
REMARK  190  A    between atoms: _444  and  _447
REMARK  191  A    between atoms: _447  and  _448
REMARK  192  A    between atoms: _449  and  _451
REMARK  193  A    between atoms: _451  and  _452
REMARK  194  A    between atoms: _455  and  _457
REMARK  195  A    between atoms: _457  and  _458
REMARK  196  A    between atoms: _457  and  _460
REMARK  197  A    between atoms: _460  and  _461
REMARK  198  A    between atoms: _461  and  _462
REMARK  199  A    between atoms: _462  and  _463
REMARK  200  A    between atoms: _472  and  _474
REMARK  201  A    between atoms: _474  and  _475
REMARK  202  A    between atoms: _474  and  _477
REMARK  203  A    between atoms: _477  and  _478
REMARK  204  A    between atoms: _478  and  _479
REMARK  205  A    between atoms: _479  and  _480
REMARK  206  A    between atoms: _480  and  _481
REMARK  207  A    between atoms: _485  and  _487
REMARK  208  A    between atoms: _487  and  _488
REMARK  209  A    between atoms: _487  and  _490
REMARK  210  A    between atoms: _490  and  _491
REMARK  211  A    between atoms: _496  and  _497
REMARK  212  A    between atoms: _499  and  _501
REMARK  213  A    between atoms: _501  and  _502
REMARK  214  A    between atoms: _504  and  _506
REMARK  215  A    between atoms: _506  and  _507
REMARK  216  A    between atoms: _506  and  _509
REMARK  217  A    between atoms: _509  and  _510
REMARK  218  A    between atoms: _513  and  _515
REMARK  219  A    between atoms: _515  and  _516
REMARK  220  A    between atoms: _515  and  _518
REMARK  221  A    between atoms: _518  and  _519
REMARK  222  A    between atoms: _524  and  _525
REMARK  223  A    between atoms: _527  and  _529
REMARK  224  A    between atoms: _529  and  _530
REMARK  225  A    between atoms: _529  and  _532
REMARK  226  A    between atoms: _532  and  _533
REMARK                            x       y       z     vdW  Elec       q    Type
REMARK                         _______ _______ _______ _____ _____    ______ ____
ROOT
ATOM      1  O   HOH     1       3.567  64.489  10.761  0.00  0.00    +0.000 OA
ENDROOT
TORSDOF 0
REMARK  Name = ../refined-set-2016/2vwn/2vwn_pocket.pdb
REMARK  226 active torsions:
REMARK  status: ('A' for Active; 'I' for Inactive)
REMARK    1  A    between atoms: _1  and  _5
REMARK    2  A    between atoms: _5  and  _6
REMARK    3  A    between atoms: _5  and  _8
REMARK    4  A    between atoms: _8  and  _9
REMARK    5  A    between atoms: _12  and  _14
REMARK    6  A    between atoms: _14  and  _15
REMARK    7  A    between atoms: _14  and  _17
REMARK    8  A    between atoms: _20  and  _22
REMARK    9  A    between atoms: _22  and  _23
REMARK   10  A    between atoms: _22  and  _25
REMARK   11  A    between atoms: _25  and  _26
REMARK   12  A    between atoms: _31  and  _33
REMARK   13  A    between atoms: _33  and  _34
REMARK   14  A    between atoms: _33  and  _36
REMARK   15  A    between atoms: _36  and  _37
REMARK   16  A    between atoms: _37  and  _38
REMARK   17  A    between atoms: _43  and  _45
REMARK   18  A    between atoms: _45  and  _46
REMARK   19  A    between atoms: _45  and  _48
REMARK   20  A    between atoms: _48  and  _49
REMARK   21  A    between atoms: _52  and  _54
REMARK   22  A    between atoms: _54  and  _55
REMARK   23  A    between atoms: _54  and  _57
REMARK   24  A    between atoms: _57  and  _58
REMARK   25  A    between atoms: _58  and  _59
REMARK   26  A    between atoms: _59  and  _60
REMARK   27  A    between atoms: _60  and  _61
REMARK   28  A    between atoms: _65  and  _67
REMARK   29  A    between atoms: _67  and  _68
REMARK   30  A    between atoms: _67  and  _70
REMARK   31  A    between atoms: _70  and  _71
REMARK   32  A    between atoms: _71  and  _72
REMARK   33  A    between atoms: _75  and  _77
REMARK   34  A    between atoms: _77  and  _78
REMARK   35  A    between atoms: _77  and  _80
REMARK   36  A    between atoms: _80  and  _81
REMARK   37  A    between atoms: _84  and  _86
REMARK   38  A    between atoms: _86  and  _87
REMARK   39  A    between atoms: _86  and  _89
REMARK   40  A    between atoms: _89  and  _90
REMARK   41  A    between atoms: _95  and  _96
REMARK   42  A    between atoms: _98  and  _100
REMARK   43  A    between atoms: _100  and  _101
REMARK   44  A    between atoms: _100  and  _103
REMARK   45  A    between atoms: _103  and  _104
REMARK   46  A    between atoms: _107  and  _109
REMARK   47  A    between atoms: _109  and  _110
REMARK   48  A    between atoms: _109  and  _112
REMARK   49  A    between atoms: _112  and  _113
REMARK   50  A    between atoms: _116  and  _118
REMARK   51  A    between atoms: _118  and  _119
REMARK   52  A    between atoms: _118  and  _121
REMARK   53  A    between atoms: _124  and  _126
REMARK   54  A    between atoms: _126  and  _127
REMARK   55  A    between atoms: _126  and  _129
REMARK   56  A    between atoms: _129  and  _130
REMARK   57  A    between atoms: _130  and  _131
REMARK   58  A    between atoms: _131  and  _132
REMARK   59  A    between atoms: _141  and  _143
REMARK   60  A    between atoms: _143  and  _144
REMARK   61  A    between atoms: _143  and  _146
REMARK   62  A    between atoms: _146  and  _147
REMARK   63  A    between atoms: _152  and  _154
REMARK   64  A    between atoms: _154  and  _155
REMARK   65  A    between atoms: _154  and  _157
REMARK   66  A    between atoms: _157  and  _158
REMARK   67  A    between atoms: _158  and  _159
REMARK   68  A    between atoms: _162  and  _164
REMARK   69  A    between atoms: _164  and  _165
REMARK   70  A    between atoms: _164  and  _167
REMARK   71  A    between atoms: _167  and  _168
REMARK   72  A    between atoms: _168  and  _169
REMARK   73  A    between atoms: _169  and  _170
REMARK   74  A    between atoms: _170  and  _171
REMARK   75  A    between atoms: _175  and  _177
REMARK   76  A    between atoms: _177  and  _178
REMARK   77  A    between atoms: _180  and  _182
REMARK   78  A    between atoms: _182  and  _183
REMARK   79  A    between atoms: _182  and  _185
REMARK   80  A    between atoms: _185  and  _186
REMARK   81  A    between atoms: _186  and  _187
REMARK   82  A    between atoms: _192  and  _194
REMARK   83  A    between atoms: _194  and  _195
REMARK   84  A    between atoms: _194  and  _197
REMARK   85  A    between atoms: _200  and  _202
REMARK   86  A    between atoms: _202  and  _203
REMARK   87  A    between atoms: _202  and  _205
REMARK   88  A    between atoms: _205  and  _206
REMARK   89  A    between atoms: _208  and  _210
REMARK   90  A    between atoms: _210  and  _211
REMARK   91  A    between atoms: _210  and  _213
REMARK   92  A    between atoms: _213  and  _214
REMARK   93  A    between atoms: _216  and  _218
REMARK   94  A    between atoms: _218  and  _219
REMARK   95  A    between atoms: _218  and  _221
REMARK   96  A    between atoms: _221  and  _222
REMARK   97  A    between atoms: _228  and  _230
REMARK   98  A    between atoms: _230  and  _231
REMARK   99  A    between atoms: _230  and  _233
REMARK  100  A    between atoms: _233  and  _234
REMARK  101  A    between atoms: _237  and  _239
REMARK  102  A    between atoms: _239  and  _240
REMARK  103  A    between atoms: _239  and  _242
REMARK  104  A    between atoms: _242  and  _243
REMARK  105  A    between atoms: _246  and  _248
REMARK  106  A    between atoms: _248  and  _249
REMARK  107  A    between atoms: _248  and  _251
REMARK  108  A    between atoms: _251  and  _252
REMARK  109  A    between atoms: _255  and  _257
REMARK  110  A    between atoms: _257  and  _258
REMARK  111  A    between atoms: _257  and  _260
REMARK  112  A    between atoms: _260  and  _261
REMARK  113  A    between atoms: _261  and  _262
REMARK  114  A    between atoms: _264  and  _266
REMARK  115  A    between atoms: _266  and  _267
REMARK  116  A    between atoms: _266  and  _269
REMARK  117  A    between atoms: _269  and  _270
REMARK  118  A    between atoms: _276  and  _278
REMARK  119  A    between atoms: _278  and  _279
REMARK  120  A    between atoms: _278  and  _281
REMARK  121  A    between atoms: _283  and  _285
REMARK  122  A    between atoms: _285  and  _286
REMARK  123  A    between atoms: _289  and  _291
REMARK  124  A    between atoms: _291  and  _292
REMARK  125  A    between atoms: _294  and  _296
REMARK  126  A    between atoms: _296  and  _297
REMARK  127  A    between atoms: _296  and  _299
REMARK  128  A    between atoms: _299  and  _300
REMARK  129  A    between atoms: _300  and  _301
REMARK  130  A    between atoms: _304  and  _306
REMARK  131  A    between atoms: _306  and  _307
REMARK  132  A    between atoms: _306  and  _309
REMARK  133  A    between atoms: _309  and  _310
REMARK  134  A    between atoms: _313  and  _315
REMARK  135  A    between atoms: _315  and  _316
REMARK  136  A    between atoms: _319  and  _321
REMARK  137  A    between atoms: _321  and  _322
REMARK  138  A    between atoms: _321  and  _324
REMARK  139  A    between atoms: _324  and  _325
REMARK  140  A    between atoms: _325  and  _448
REMARK  141  A    between atoms: _326  and  _328
REMARK  142  A    between atoms: _328  and  _329
REMARK  143  A    between atoms: _328  and  _331
REMARK  144  A    between atoms: _331  and  _332
REMARK  145  A    between atoms: _332  and  _333
REMARK  146  A    between atoms: _338  and  _340
REMARK  147  A    between atoms: _340  and  _341
REMARK  148  A    between atoms: _343  and  _345
REMARK  149  A    between atoms: _345  and  _346
REMARK  150  A    between atoms: _345  and  _348
REMARK  151  A    between atoms: _348  and  _349
REMARK  152  A    between atoms: _352  and  _354
REMARK  153  A    between atoms: _354  and  _355
REMARK  154  A    between atoms: _354  and  _357
REMARK  155  A    between atoms: _357  and  _358
REMARK  156  A    between atoms: _360  and  _362
REMARK  157  A    between atoms: _362  and  _363
REMARK  158  A    between atoms: _365  and  _367
REMARK  159  A    between atoms: _367  and  _368
REMARK  160  A    between atoms: _370  and  _372
REMARK  161  A    between atoms: _372  and  _373
REMARK  162  A    between atoms: _372  and  _375
REMARK  163  A    between atoms: _375  and  _376
REMARK  164  A    between atoms: _381  and  _383
REMARK  165  A    between atoms: _383  and  _384
REMARK  166  A    between atoms: _383  and  _386
REMARK  167  A    between atoms: _386  and  _387
REMARK  168  A    between atoms: _390  and  _392
REMARK  169  A    between atoms: _392  and  _393
REMARK  170  A    between atoms: _392  and  _395
REMARK  171  A    between atoms: _398  and  _400
REMARK  172  A    between atoms: _400  and  _401
REMARK  173  A    between atoms: _400  and  _403
REMARK  174  A    between atoms: _403  and  _404
REMARK  175  A    between atoms: _406  and  _408
REMARK  176  A    between atoms: _408  and  _409
REMARK  177  A    between atoms: _408  and  _411
REMARK  178  A    between atoms: _411  and  _412
REMARK  179  A    between atoms: _422  and  _424
REMARK  180  A    between atoms: _424  and  _425
REMARK  181  A    between atoms: _427  and  _429
REMARK  182  A    between atoms: _429  and  _430
REMARK  183  A    between atoms: _429  and  _432
REMARK  184  A    between atoms: _432  and  _433
REMARK  185  A    between atoms: _433  and  _434
REMARK  186  A    between atoms: _437  and  _439
REMARK  187  A    between atoms: _439  and  _440
REMARK  188  A    between atoms: _442  and  _444
REMARK  189  A    between atoms: _444  and  _445
REMARK  190  A    between atoms: _444  and  _447
REMARK  191  A    between atoms: _447  and  _448
REMARK  192  A    between atoms: _449  and  _451
REMARK  193  A    between atoms: _451  and  _452
REMARK  194  A    between atoms: _455  and  _457
REMARK  195  A    between atoms: _457  and  _458
REMARK  196  A    between atoms: _457  and  _460
REMARK  197  A    between atoms: _460  and  _461
REMARK  198  A    between atoms: _461  and  _462
REMARK  199  A    between atoms: _462  and  _463
REMARK  200  A    between atoms: _472  and  _474
REMARK  201  A    between atoms: _474  and  _475
REMARK  202  A    between atoms: _474  and  _477
REMARK  203  A    between atoms: _477  and  _478
REMARK  204  A    between atoms: _478  and  _479
REMARK  205  A    between atoms: _479  and  _480
REMARK  206  A    between atoms: _480  and  _481
REMARK  207  A    between atoms: _485  and  _487
REMARK  208  A    between atoms: _487  and  _488
REMARK  209  A    between atoms: _487  and  _490
REMARK  210  A    between atoms: _490  and  _491
REMARK  211  A    between atoms: _496  and  _497
REMARK  212  A    between atoms: _499  and  _501
REMARK  213  A    between atoms: _501  and  _502
REMARK  214  A    between atoms: _504  and  _506
REMARK  215  A    between atoms: _506  and  _507
REMARK  216  A    between atoms: _506  and  _509
REMARK  217  A    between atoms: _509  and  _510
REMARK  218  A    between atoms: _513  and  _515
REMARK  219  A    between atoms: _515  and  _516
REMARK  220  A    between atoms: _515  and  _518
REMARK  221  A    between atoms: _518  and  _519
REMARK  222  A    between atoms: _524  and  _525
REMARK  223  A    between atoms: _527  and  _529
REMARK  224  A    between atoms: _529  and  _530
REMARK  225  A    between atoms: _529  and  _532
REMARK  226  A    between atoms: _532  and  _533
REMARK                            x       y       z     vdW  Elec       q    Type
REMARK                         _______ _______ _______ _____ _____    ______ ____
ROOT
ATOM      1  O   HOH     1      13.820  65.622  13.608  0.00  0.00    +0.000 OA
ENDROOT
TORSDOF 0
REMARK  Name = ../refined-set-2016/2vwn/2vwn_pocket.pdb
REMARK  226 active torsions:
REMARK  status: ('A' for Active; 'I' for Inactive)
REMARK    1  A    between atoms: _1  and  _5
REMARK    2  A    between atoms: _5  and  _6
REMARK    3  A    between atoms: _5  and  _8
REMARK    4  A    between atoms: _8  and  _9
REMARK    5  A    between atoms: _12  and  _14
REMARK    6  A    between atoms: _14  and  _15
REMARK    7  A    between atoms: _14  and  _17
REMARK    8  A    between atoms: _20  and  _22
REMARK    9  A    between atoms: _22  and  _23
REMARK   10  A    between atoms: _22  and  _25
REMARK   11  A    between atoms: _25  and  _26
REMARK   12  A    between atoms: _31  and  _33
REMARK   13  A    between atoms: _33  and  _34
REMARK   14  A    between atoms: _33  and  _36
REMARK   15  A    between atoms: _36  and  _37
REMARK   16  A    between atoms: _37  and  _38
REMARK   17  A    between atoms: _43  and  _45
REMARK   18  A    between atoms: _45  and  _46
REMARK   19  A    between atoms: _45  and  _48
REMARK   20  A    between atoms: _48  and  _49
REMARK   21  A    between atoms: _52  and  _54
REMARK   22  A    between atoms: _54  and  _55
REMARK   23  A    between atoms: _54  and  _57
REMARK   24  A    between atoms: _57  and  _58
REMARK   25  A    between atoms: _58  and  _59
REMARK   26  A    between atoms: _59  and  _60
REMARK   27  A    between atoms: _60  and  _61
REMARK   28  A    between atoms: _65  and  _67
REMARK   29  A    between atoms: _67  and  _68
REMARK   30  A    between atoms: _67  and  _70
REMARK   31  A    between atoms: _70  and  _71
REMARK   32  A    between atoms: _71  and  _72
REMARK   33  A    between atoms: _75  and  _77
REMARK   34  A    between atoms: _77  and  _78
REMARK   35  A    between atoms: _77  and  _80
REMARK   36  A    between atoms: _80  and  _81
REMARK   37  A    between atoms: _84  and  _86
REMARK   38  A    between atoms: _86  and  _87
REMARK   39  A    between atoms: _86  and  _89
REMARK   40  A    between atoms: _89  and  _90
REMARK   41  A    between atoms: _95  and  _96
REMARK   42  A    between atoms: _98  and  _100
REMARK   43  A    between atoms: _100  and  _101
REMARK   44  A    between atoms: _100  and  _103
REMARK   45  A    between atoms: _103  and  _104
REMARK   46  A    between atoms: _107  and  _109
REMARK   47  A    between atoms: _109  and  _110
REMARK   48  A    between atoms: _109  and  _112
REMARK   49  A    between atoms: _112  and  _113
REMARK   50  A    between atoms: _116  and  _118
REMARK   51  A    between atoms: _118  and  _119
REMARK   52  A    between atoms: _118  and  _121
REMARK   53  A    between atoms: _124  and  _126
REMARK   54  A    between atoms: _126  and  _127
REMARK   55  A    between atoms: _126  and  _129
REMARK   56  A    between atoms: _129  and  _130
REMARK   57  A    between atoms: _130  and  _131
REMARK   58  A    between atoms: _131  and  _132
REMARK   59  A    between atoms: _141  and  _143
REMARK   60  A    between atoms: _143  and  _144
REMARK   61  A    between atoms: _143  and  _146
REMARK   62  A    between atoms: _146  and  _147
REMARK   63  A    between atoms: _152  and  _154
REMARK   64  A    between atoms: _154  and  _155
REMARK   65  A    between atoms: _154  and  _157
REMARK   66  A    between atoms: _157  and  _158
REMARK   67  A    between atoms: _158  and  _159
REMARK   68  A    between atoms: _162  and  _164
REMARK   69  A    between atoms: _164  and  _165
REMARK   70  A    between atoms: _164  and  _167
REMARK   71  A    between atoms: _167  and  _168
REMARK   72  A    between atoms: _168  and  _169
REMARK   73  A    between atoms: _169  and  _170
REMARK   74  A    between atoms: _170  and  _171
REMARK   75  A    between atoms: _175  and  _177
REMARK   76  A    between atoms: _177  and  _178
REMARK   77  A    between atoms: _180  and  _182
REMARK   78  A    between atoms: _182  and  _183
REMARK   79  A    between atoms: _182  and  _185
REMARK   80  A    between atoms: _185  and  _186
REMARK   81  A    between atoms: _186  and  _187
REMARK   82  A    between atoms: _192  and  _194
REMARK   83  A    between atoms: _194  and  _195
REMARK   84  A    between atoms: _194  and  _197
REMARK   85  A    between atoms: _200  and  _202
REMARK   86  A    between atoms: _202  and  _203
REMARK   87  A    between atoms: _202  and  _205
REMARK   88  A    between atoms: _205  and  _206
REMARK   89  A    between atoms: _208  and  _210
REMARK   90  A    between atoms: _210  and  _211
REMARK   91  A    between atoms: _210  and  _213
REMARK   92  A    between atoms: _213  and  _214
REMARK   93  A    between atoms: _216  and  _218
REMARK   94  A    between atoms: _218  and  _219
REMARK   95  A    between atoms: _218  and  _221
REMARK   96  A    between atoms: _221  and  _222
REMARK   97  A    between atoms: _228  and  _230
REMARK   98  A    between atoms: _230  and  _231
REMARK   99  A    between atoms: _230  and  _233
REMARK  100  A    between atoms: _233  and  _234
REMARK  101  A    between atoms: _237  and  _239
REMARK  102  A    between atoms: _239  and  _240
REMARK  103  A    between atoms: _239  and  _242
REMARK  104  A    between atoms: _242  and  _243
REMARK  105  A    between atoms: _246  and  _248
REMARK  106  A    between atoms: _248  and  _249
REMARK  107  A    between atoms: _248  and  _251
REMARK  108  A    between atoms: _251  and  _252
REMARK  109  A    between atoms: _255  and  _257
REMARK  110  A    between atoms: _257  and  _258
REMARK  111  A    between atoms: _257  and  _260
REMARK  112  A    between atoms: _260  and  _261
REMARK  113  A    between atoms: _261  and  _262
REMARK  114  A    between atoms: _264  and  _266
REMARK  115  A    between atoms: _266  and  _267
REMARK  116  A    between atoms: _266  and  _269
REMARK  117  A    between atoms: _269  and  _270
REMARK  118  A    between atoms: _276  and  _278
REMARK  119  A    between atoms: _278  and  _279
REMARK  120  A    between atoms: _278  and  _281
REMARK  121  A    between atoms: _283  and  _285
REMARK  122  A    between atoms: _285  and  _286
REMARK  123  A    between atoms: _289  and  _291
REMARK  124  A    between atoms: _291  and  _292
REMARK  125  A    between atoms: _294  and  _296
REMARK  126  A    between atoms: _296  and  _297
REMARK  127  A    between atoms: _296  and  _299
REMARK  128  A    between atoms: _299  and  _300
REMARK  129  A    between atoms: _300  and  _301
REMARK  130  A    between atoms: _304  and  _306
REMARK  131  A    between atoms: _306  and  _307
REMARK  132  A    between atoms: _306  and  _309
REMARK  133  A    between atoms: _309  and  _310
REMARK  134  A    between atoms: _313  and  _315
REMARK  135  A    between atoms: _315  and  _316
REMARK  136  A    between atoms: _319  and  _321
REMARK  137  A    between atoms: _321  and  _322
REMARK  138  A    between atoms: _321  and  _324
REMARK  139  A    between atoms: _324  and  _325
REMARK  140  A    between atoms: _325  and  _448
REMARK  141  A    between atoms: _326  and  _328
REMARK  142  A    between atoms: _328  and  _329
REMARK  143  A    between atoms: _328  and  _331
REMARK  144  A    between atoms: _331  and  _332
REMARK  145  A    between atoms: _332  and  _333
REMARK  146  A    between atoms: _338  and  _340
REMARK  147  A    between atoms: _340  and  _341
REMARK  148  A    between atoms: _343  and  _345
REMARK  149  A    between atoms: _345  and  _346
REMARK  150  A    between atoms: _345  and  _348
REMARK  151  A    between atoms: _348  and  _349
REMARK  152  A    between atoms: _352  and  _354
REMARK  153  A    between atoms: _354  and  _355
REMARK  154  A    between atoms: _354  and  _357
REMARK  155  A    between atoms: _357  and  _358
REMARK  156  A    between atoms: _360  and  _362
REMARK  157  A    between atoms: _362  and  _363
REMARK  158  A    between atoms: _365  and  _367
REMARK  159  A    between atoms: _367  and  _368
REMARK  160  A    between atoms: _370  and  _372
REMARK  161  A    between atoms: _372  and  _373
REMARK  162  A    between atoms: _372  and  _375
REMARK  163  A    between atoms: _375  and  _376
REMARK  164  A    between atoms: _381  and  _383
REMARK  165  A    between atoms: _383  and  _384
REMARK  166  A    between atoms: _383  and  _386
REMARK  167  A    between atoms: _386  and  _387
REMARK  168  A    between atoms: _390  and  _392
REMARK  169  A    between atoms: _392  and  _393
REMARK  170  A    between atoms: _392  and  _395
REMARK  171  A    between atoms: _398  and  _400
REMARK  172  A    between atoms: _400  and  _401
REMARK  173  A    between atoms: _400  and  _403
REMARK  174  A    between atoms: _403  and  _404
REMARK  175  A    between atoms: _406  and  _408
REMARK  176  A    between atoms: _408  and  _409
REMARK  177  A    between atoms: _408  and  _411
REMARK  178  A    between atoms: _411  and  _412
REMARK  179  A    between atoms: _422  and  _424
REMARK  180  A    between atoms: _424  and  _425
REMARK  181  A    between atoms: _427  and  _429
REMARK  182  A    between atoms: _429  and  _430
REMARK  183  A    between atoms: _429  and  _432
REMARK  184  A    between atoms: _432  and  _433
REMARK  185  A    between atoms: _433  and  _434
REMARK  186  A    between atoms: _437  and  _439
REMARK  187  A    between atoms: _439  and  _440
REMARK  188  A    between atoms: _442  and  _444
REMARK  189  A    between atoms: _444  and  _445
REMARK  190  A    between atoms: _444  and  _447
REMARK  191  A    between atoms: _447  and  _448
REMARK  192  A    between atoms: _449  and  _451
REMARK  193  A    between atoms: _451  and  _452
REMARK  194  A    between atoms: _455  and  _457
REMARK  195  A    between atoms: _457  and  _458
REMARK  196  A    between atoms: _457  and  _460
REMARK  197  A    between atoms: _460  and  _461
REMARK  198  A    between atoms: _461  and  _462
REMARK  199  A    between atoms: _462  and  _463
REMARK  200  A    between atoms: _472  and  _474
REMARK  201  A    between atoms: _474  and  _475
REMARK  202  A    between atoms: _474  and  _477
REMARK  203  A    between atoms: _477  and  _478
REMARK  204  A    between atoms: _478  and  _479
REMARK  205  A    between atoms: _479  and  _480
REMARK  206  A    between atoms: _480  and  _481
REMARK  207  A    between atoms: _485  and  _487
REMARK  208  A    between atoms: _487  and  _488
REMARK  209  A    between atoms: _487  and  _490
REMARK  210  A    between atoms: _490  and  _491
REMARK  211  A    between atoms: _496  and  _497
REMARK  212  A    between atoms: _499  and  _501
REMARK  213  A    between atoms: _501  and  _502
REMARK  214  A    between atoms: _504  and  _506
REMARK  215  A    between atoms: _506  and  _507
REMARK  216  A    between atoms: _506  and  _509
REMARK  217  A    between atoms: _509  and  _510
REMARK  218  A    between atoms: _513  and  _515
REMARK  219  A    between atoms: _515  and  _516
REMARK  220  A    between atoms: _515  and  _518
REMARK  221  A    between atoms: _518  and  _519
REMARK  222  A    between atoms: _524  and  _525
REMARK  223  A    between atoms: _527  and  _529
REMARK  224  A    between atoms: _529  and  _530
REMARK  225  A    between atoms: _529  and  _532
REMARK  226  A    between atoms: _532  and  _533
REMARK                            x       y       z     vdW  Elec       q    Type
REMARK                         _______ _______ _______ _____ _____    ______ ____
ROOT
ATOM      1  O   HOH     1      10.060  61.816  10.394  0.00  0.00    +0.000 OA
ENDROOT
TORSDOF 0
REMARK  Name = ../refined-set-2016/2vwn/2vwn_pocket.pdb
REMARK  226 active torsions:
REMARK  status: ('A' for Active; 'I' for Inactive)
REMARK    1  A    between atoms: _1  and  _5
REMARK    2  A    between atoms: _5  and  _6
REMARK    3  A    between atoms: _5  and  _8
REMARK    4  A    between atoms: _8  and  _9
REMARK    5  A    between atoms: _12  and  _14
REMARK    6  A    between atoms: _14  and  _15
REMARK    7  A    between atoms: _14  and  _17
REMARK    8  A    between atoms: _20  and  _22
REMARK    9  A    between atoms: _22  and  _23
REMARK   10  A    between atoms: _22  and  _25
REMARK   11  A    between atoms: _25  and  _26
REMARK   12  A    between atoms: _31  and  _33
REMARK   13  A    between atoms: _33  and  _34
REMARK   14  A    between atoms: _33  and  _36
REMARK   15  A    between atoms: _36  and  _37
REMARK   16  A    between atoms: _37  and  _38
REMARK   17  A    between atoms: _43  and  _45
REMARK   18  A    between atoms: _45  and  _46
REMARK   19  A    between atoms: _45  and  _48
REMARK   20  A    between atoms: _48  and  _49
REMARK   21  A    between atoms: _52  and  _54
REMARK   22  A    between atoms: _54  and  _55
REMARK   23  A    between atoms: _54  and  _57
REMARK   24  A    between atoms: _57  and  _58
REMARK   25  A    between atoms: _58  and  _59
REMARK   26  A    between atoms: _59  and  _60
REMARK   27  A    between atoms: _60  and  _61
REMARK   28  A    between atoms: _65  and  _67
REMARK   29  A    between atoms: _67  and  _68
REMARK   30  A    between atoms: _67  and  _70
REMARK   31  A    between atoms: _70  and  _71
REMARK   32  A    between atoms: _71  and  _72
REMARK   33  A    between atoms: _75  and  _77
REMARK   34  A    between atoms: _77  and  _78
REMARK   35  A    between atoms: _77  and  _80
REMARK   36  A    between atoms: _80  and  _81
REMARK   37  A    between atoms: _84  and  _86
REMARK   38  A    between atoms: _86  and  _87
REMARK   39  A    between atoms: _86  and  _89
REMARK   40  A    between atoms: _89  and  _90
REMARK   41  A    between atoms: _95  and  _96
REMARK   42  A    between atoms: _98  and  _100
REMARK   43  A    between atoms: _100  and  _101
REMARK   44  A    between atoms: _100  and  _103
REMARK   45  A    between atoms: _103  and  _104
REMARK   46  A    between atoms: _107  and  _109
REMARK   47  A    between atoms: _109  and  _110
REMARK   48  A    between atoms: _109  and  _112
REMARK   49  A    between atoms: _112  and  _113
REMARK   50  A    between atoms: _116  and  _118
REMARK   51  A    between atoms: _118  and  _119
REMARK   52  A    between atoms: _118  and  _121
REMARK   53  A    between atoms: _124  and  _126
REMARK   54  A    between atoms: _126  and  _127
REMARK   55  A    between atoms: _126  and  _129
REMARK   56  A    between atoms: _129  and  _130
REMARK   57  A    between atoms: _130  and  _131
REMARK   58  A    between atoms: _131  and  _132
REMARK   59  A    between atoms: _141  and  _143
REMARK   60  A    between atoms: _143  and  _144
REMARK   61  A    between atoms: _143  and  _146
REMARK   62  A    between atoms: _146  and  _147
REMARK   63  A    between atoms: _152  and  _154
REMARK   64  A    between atoms: _154  and  _155
REMARK   65  A    between atoms: _154  and  _157
REMARK   66  A    between atoms: _157  and  _158
REMARK   67  A    between atoms: _158  and  _159
REMARK   68  A    between atoms: _162  and  _164
REMARK   69  A    between atoms: _164  and  _165
REMARK   70  A    between atoms: _164  and  _167
REMARK   71  A    between atoms: _167  and  _168
REMARK   72  A    between atoms: _168  and  _169
REMARK   73  A    between atoms: _169  and  _170
REMARK   74  A    between atoms: _170  and  _171
REMARK   75  A    between atoms: _175  and  _177
REMARK   76  A    between atoms: _177  and  _178
REMARK   77  A    between atoms: _180  and  _182
REMARK   78  A    between atoms: _182  and  _183
REMARK   79  A    between atoms: _182  and  _185
REMARK   80  A    between atoms: _185  and  _186
REMARK   81  A    between atoms: _186  and  _187
REMARK   82  A    between atoms: _192  and  _194
REMARK   83  A    between atoms: _194  and  _195
REMARK   84  A    between atoms: _194  and  _197
REMARK   85  A    between atoms: _200  and  _202
REMARK   86  A    between atoms: _202  and  _203
REMARK   87  A    between atoms: _202  and  _205
REMARK   88  A    between atoms: _205  and  _206
REMARK   89  A    between atoms: _208  and  _210
REMARK   90  A    between atoms: _210  and  _211
REMARK   91  A    between atoms: _210  and  _213
REMARK   92  A    between atoms: _213  and  _214
REMARK   93  A    between atoms: _216  and  _218
REMARK   94  A    between atoms: _218  and  _219
REMARK   95  A    between atoms: _218  and  _221
REMARK   96  A    between atoms: _221  and  _222
REMARK   97  A    between atoms: _228  and  _230
REMARK   98  A    between atoms: _230  and  _231
REMARK   99  A    between atoms: _230  and  _233
REMARK  100  A    between atoms: _233  and  _234
REMARK  101  A    between atoms: _237  and  _239
REMARK  102  A    between atoms: _239  and  _240
REMARK  103  A    between atoms: _239  and  _242
REMARK  104  A    between atoms: _242  and  _243
REMARK  105  A    between atoms: _246  and  _248
REMARK  106  A    between atoms: _248  and  _249
REMARK  107  A    between atoms: _248  and  _251
REMARK  108  A    between atoms: _251  and  _252
REMARK  109  A    between atoms: _255  and  _257
REMARK  110  A    between atoms: _257  and  _258
REMARK  111  A    between atoms: _257  and  _260
REMARK  112  A    between atoms: _260  and  _261
REMARK  113  A    between atoms: _261  and  _262
REMARK  114  A    between atoms: _264  and  _266
REMARK  115  A    between atoms: _266  and  _267
REMARK  116  A    between atoms: _266  and  _269
REMARK  117  A    between atoms: _269  and  _270
REMARK  118  A    between atoms: _276  and  _278
REMARK  119  A    between atoms: _278  and  _279
REMARK  120  A    between atoms: _278  and  _281
REMARK  121  A    between atoms: _283  and  _285
REMARK  122  A    between atoms: _285  and  _286
REMARK  123  A    between atoms: _289  and  _291
REMARK  124  A    between atoms: _291  and  _292
REMARK  125  A    between atoms: _294  and  _296
REMARK  126  A    between atoms: _296  and  _297
REMARK  127  A    between atoms: _296  and  _299
REMARK  128  A    between atoms: _299  and  _300
REMARK  129  A    between atoms: _300  and  _301
REMARK  130  A    between atoms: _304  and  _306
REMARK  131  A    between atoms: _306  and  _307
REMARK  132  A    between atoms: _306  and  _309
REMARK  133  A    between atoms: _309  and  _310
REMARK  134  A    between atoms: _313  and  _315
REMARK  135  A    between atoms: _315  and  _316
REMARK  136  A    between atoms: _319  and  _321
REMARK  137  A    between atoms: _321  and  _322
REMARK  138  A    between atoms: _321  and  _324
REMARK  139  A    between atoms: _324  and  _325
REMARK  140  A    between atoms: _325  and  _448
REMARK  141  A    between atoms: _326  and  _328
REMARK  142  A    between atoms: _328  and  _329
REMARK  143  A    between atoms: _328  and  _331
REMARK  144  A    between atoms: _331  and  _332
REMARK  145  A    between atoms: _332  and  _333
REMARK  146  A    between atoms: _338  and  _340
REMARK  147  A    between atoms: _340  and  _341
REMARK  148  A    between atoms: _343  and  _345
REMARK  149  A    between atoms: _345  and  _346
REMARK  150  A    between atoms: _345  and  _348
REMARK  151  A    between atoms: _348  and  _349
REMARK  152  A    between atoms: _352  and  _354
REMARK  153  A    between atoms: _354  and  _355
REMARK  154  A    between atoms: _354  and  _357
REMARK  155  A    between atoms: _357  and  _358
REMARK  156  A    between atoms: _360  and  _362
REMARK  157  A    between atoms: _362  and  _363
REMARK  158  A    between atoms: _365  and  _367
REMARK  159  A    between atoms: _367  and  _368
REMARK  160  A    between atoms: _370  and  _372
REMARK  161  A    between atoms: _372  and  _373
REMARK  162  A    between atoms: _372  and  _375
REMARK  163  A    between atoms: _375  and  _376
REMARK  164  A    between atoms: _381  and  _383
REMARK  165  A    between atoms: _383  and  _384
REMARK  166  A    between atoms: _383  and  _386
REMARK  167  A    between atoms: _386  and  _387
REMARK  168  A    between atoms: _390  and  _392
REMARK  169  A    between atoms: _392  and  _393
REMARK  170  A    between atoms: _392  and  _395
REMARK  171  A    between atoms: _398  and  _400
REMARK  172  A    between atoms: _400  and  _401
REMARK  173  A    between atoms: _400  and  _403
REMARK  174  A    between atoms: _403  and  _404
REMARK  175  A    between atoms: _406  and  _408
REMARK  176  A    between atoms: _408  and  _409
REMARK  177  A    between atoms: _408  and  _411
REMARK  178  A    between atoms: _411  and  _412
REMARK  179  A    between atoms: _422  and  _424
REMARK  180  A    between atoms: _424  and  _425
REMARK  181  A    between atoms: _427  and  _429
REMARK  182  A    between atoms: _429  and  _430
REMARK  183  A    between atoms: _429  and  _432
REMARK  184  A    between atoms: _432  and  _433
REMARK  185  A    between atoms: _433  and  _434
REMARK  186  A    between atoms: _437  and  _439
REMARK  187  A    between atoms: _439  and  _440
REMARK  188  A    between atoms: _442  and  _444
REMARK  189  A    between atoms: _444  and  _445
REMARK  190  A    between atoms: _444  and  _447
REMARK  191  A    between atoms: _447  and  _448
REMARK  192  A    between atoms: _449  and  _451
REMARK  193  A    between atoms: _451  and  _452
REMARK  194  A    between atoms: _455  and  _457
REMARK  195  A    between atoms: _457  and  _458
REMARK  196  A    between atoms: _457  and  _460
REMARK  197  A    between atoms: _460  and  _461
REMARK  198  A    between atoms: _461  and  _462
REMARK  199  A    between atoms: _462  and  _463
REMARK  200  A    between atoms: _472  and  _474
REMARK  201  A    between atoms: _474  and  _475
REMARK  202  A    between atoms: _474  and  _477
REMARK  203  A    between atoms: _477  and  _478
REMARK  204  A    between atoms: _478  and  _479
REMARK  205  A    between atoms: _479  and  _480
REMARK  206  A    between atoms: _480  and  _481
REMARK  207  A    between atoms: _485  and  _487
REMARK  208  A    between atoms: _487  and  _488
REMARK  209  A    between atoms: _487  and  _490
REMARK  210  A    between atoms: _490  and  _491
REMARK  211  A    between atoms: _496  and  _497
REMARK  212  A    between atoms: _499  and  _501
REMARK  213  A    between atoms: _501  and  _502
REMARK  214  A    between atoms: _504  and  _506
REMARK  215  A    between atoms: _506  and  _507
REMARK  216  A    between atoms: _506  and  _509
REMARK  217  A    between atoms: _509  and  _510
REMARK  218  A    between atoms: _513  and  _515
REMARK  219  A    between atoms: _515  and  _516
REMARK  220  A    between atoms: _515  and  _518
REMARK  221  A    between atoms: _518  and  _519
REMARK  222  A    between atoms: _524  and  _525
REMARK  223  A    between atoms: _527  and  _529
REMARK  224  A    between atoms: _529  and  _530
REMARK  225  A    between atoms: _529  and  _532
REMARK  226  A    between atoms: _532  and  _533
REMARK                            x       y       z     vdW  Elec       q    Type
REMARK                         _______ _______ _______ _____ _____    ______ ____
ROOT
ATOM      1  O   HOH     1      18.302  63.043  11.195  0.00  0.00    +0.000 OA
ENDROOT
TORSDOF 0
REMARK  Name = ../refined-set-2016/2vwn/2vwn_pocket.pdb
REMARK  226 active torsions:
REMARK  status: ('A' for Active; 'I' for Inactive)
REMARK    1  A    between atoms: _1  and  _5
REMARK    2  A    between atoms: _5  and  _6
REMARK    3  A    between atoms: _5  and  _8
REMARK    4  A    between atoms: _8  and  _9
REMARK    5  A    between atoms: _12  and  _14
REMARK    6  A    between atoms: _14  and  _15
REMARK    7  A    between atoms: _14  and  _17
REMARK    8  A    between atoms: _20  and  _22
REMARK    9  A    between atoms: _22  and  _23
REMARK   10  A    between atoms: _22  and  _25
REMARK   11  A    between atoms: _25  and  _26
REMARK   12  A    between atoms: _31  and  _33
REMARK   13  A    between atoms: _33  and  _34
REMARK   14  A    between atoms: _33  and  _36
REMARK   15  A    between atoms: _36  and  _37
REMARK   16  A    between atoms: _37  and  _38
REMARK   17  A    between atoms: _43  and  _45
REMARK   18  A    between atoms: _45  and  _46
REMARK   19  A    between atoms: _45  and  _48
REMARK   20  A    between atoms: _48  and  _49
REMARK   21  A    between atoms: _52  and  _54
REMARK   22  A    between atoms: _54  and  _55
REMARK   23  A    between atoms: _54  and  _57
REMARK   24  A    between atoms: _57  and  _58
REMARK   25  A    between atoms: _58  and  _59
REMARK   26  A    between atoms: _59  and  _60
REMARK   27  A    between atoms: _60  and  _61
REMARK   28  A    between atoms: _65  and  _67
REMARK   29  A    between atoms: _67  and  _68
REMARK   30  A    between atoms: _67  and  _70
REMARK   31  A    between atoms: _70  and  _71
REMARK   32  A    between atoms: _71  and  _72
REMARK   33  A    between atoms: _75  and  _77
REMARK   34  A    between atoms: _77  and  _78
REMARK   35  A    between atoms: _77  and  _80
REMARK   36  A    between atoms: _80  and  _81
REMARK   37  A    between atoms: _84  and  _86
REMARK   38  A    between atoms: _86  and  _87
REMARK   39  A    between atoms: _86  and  _89
REMARK   40  A    between atoms: _89  and  _90
REMARK   41  A    between atoms: _95  and  _96
REMARK   42  A    between atoms: _98  and  _100
REMARK   43  A    between atoms: _100  and  _101
REMARK   44  A    between atoms: _100  and  _103
REMARK   45  A    between atoms: _103  and  _104
REMARK   46  A    between atoms: _107  and  _109
REMARK   47  A    between atoms: _109  and  _110
REMARK   48  A    between atoms: _109  and  _112
REMARK   49  A    between atoms: _112  and  _113
REMARK   50  A    between atoms: _116  and  _118
REMARK   51  A    between atoms: _118  and  _119
REMARK   52  A    between atoms: _118  and  _121
REMARK   53  A    between atoms: _124  and  _126
REMARK   54  A    between atoms: _126  and  _127
REMARK   55  A    between atoms: _126  and  _129
REMARK   56  A    between atoms: _129  and  _130
REMARK   57  A    between atoms: _130  and  _131
REMARK   58  A    between atoms: _131  and  _132
REMARK   59  A    between atoms: _141  and  _143
REMARK   60  A    between atoms: _143  and  _144
REMARK   61  A    between atoms: _143  and  _146
REMARK   62  A    between atoms: _146  and  _147
REMARK   63  A    between atoms: _152  and  _154
REMARK   64  A    between atoms: _154  and  _155
REMARK   65  A    between atoms: _154  and  _157
REMARK   66  A    between atoms: _157  and  _158
REMARK   67  A    between atoms: _158  and  _159
REMARK   68  A    between atoms: _162  and  _164
REMARK   69  A    between atoms: _164  and  _165
REMARK   70  A    between atoms: _164  and  _167
REMARK   71  A    between atoms: _167  and  _168
REMARK   72  A    between atoms: _168  and  _169
REMARK   73  A    between atoms: _169  and  _170
REMARK   74  A    between atoms: _170  and  _171
REMARK   75  A    between atoms: _175  and  _177
REMARK   76  A    between atoms: _177  and  _178
REMARK   77  A    between atoms: _180  and  _182
REMARK   78  A    between atoms: _182  and  _183
REMARK   79  A    between atoms: _182  and  _185
REMARK   80  A    between atoms: _185  and  _186
REMARK   81  A    between atoms: _186  and  _187
REMARK   82  A    between atoms: _192  and  _194
REMARK   83  A    between atoms: _194  and  _195
REMARK   84  A    between atoms: _194  and  _197
REMARK   85  A    between atoms: _200  and  _202
REMARK   86  A    between atoms: _202  and  _203
REMARK   87  A    between atoms: _202  and  _205
REMARK   88  A    between atoms: _205  and  _206
REMARK   89  A    between atoms: _208  and  _210
REMARK   90  A    between atoms: _210  and  _211
REMARK   91  A    between atoms: _210  and  _213
REMARK   92  A    between atoms: _213  and  _214
REMARK   93  A    between atoms: _216  and  _218
REMARK   94  A    between atoms: _218  and  _219
REMARK   95  A    between atoms: _218  and  _221
REMARK   96  A    between atoms: _221  and  _222
REMARK   97  A    between atoms: _228  and  _230
REMARK   98  A    between atoms: _230  and  _231
REMARK   99  A    between atoms: _230  and  _233
REMARK  100  A    between atoms: _233  and  _234
REMARK  101  A    between atoms: _237  and  _239
REMARK  102  A    between atoms: _239  and  _240
REMARK  103  A    between atoms: _239  and  _242
REMARK  104  A    between atoms: _242  and  _243
REMARK  105  A    between atoms: _246  and  _248
REMARK  106  A    between atoms: _248  and  _249
REMARK  107  A    between atoms: _248  and  _251
REMARK  108  A    between atoms: _251  and  _252
REMARK  109  A    between atoms: _255  and  _257
REMARK  110  A    between atoms: _257  and  _258
REMARK  111  A    between atoms: _257  and  _260
REMARK  112  A    between atoms: _260  and  _261
REMARK  113  A    between atoms: _261  and  _262
REMARK  114  A    between atoms: _264  and  _266
REMARK  115  A    between atoms: _266  and  _267
REMARK  116  A    between atoms: _266  and  _269
REMARK  117  A    between atoms: _269  and  _270
REMARK  118  A    between atoms: _276  and  _278
REMARK  119  A    between atoms: _278  and  _279
REMARK  120  A    between atoms: _278  and  _281
REMARK  121  A    between atoms: _283  and  _285
REMARK  122  A    between atoms: _285  and  _286
REMARK  123  A    between atoms: _289  and  _291
REMARK  124  A    between atoms: _291  and  _292
REMARK  125  A    between atoms: _294  and  _296
REMARK  126  A    between atoms: _296  and  _297
REMARK  127  A    between atoms: _296  and  _299
REMARK  128  A    between atoms: _299  and  _300
REMARK  129  A    between atoms: _300  and  _301
REMARK  130  A    between atoms: _304  and  _306
REMARK  131  A    between atoms: _306  and  _307
REMARK  132  A    between atoms: _306  and  _309
REMARK  133  A    between atoms: _309  and  _310
REMARK  134  A    between atoms: _313  and  _315
REMARK  135  A    between atoms: _315  and  _316
REMARK  136  A    between atoms: _319  and  _321
REMARK  137  A    between atoms: _321  and  _322
REMARK  138  A    between atoms: _321  and  _324
REMARK  139  A    between atoms: _324  and  _325
REMARK  140  A    between atoms: _325  and  _448
REMARK  141  A    between atoms: _326  and  _328
REMARK  142  A    between atoms: _328  and  _329
REMARK  143  A    between atoms: _328  and  _331
REMARK  144  A    between atoms: _331  and  _332
REMARK  145  A    between atoms: _332  and  _333
REMARK  146  A    between atoms: _338  and  _340
REMARK  147  A    between atoms: _340  and  _341
REMARK  148  A    between atoms: _343  and  _345
REMARK  149  A    between atoms: _345  and  _346
REMARK  150  A    between atoms: _345  and  _348
REMARK  151  A    between atoms: _348  and  _349
REMARK  152  A    between atoms: _352  and  _354
REMARK  153  A    between atoms: _354  and  _355
REMARK  154  A    between atoms: _354  and  _357
REMARK  155  A    between atoms: _357  and  _358
REMARK  156  A    between atoms: _360  and  _362
REMARK  157  A    between atoms: _362  and  _363
REMARK  158  A    between atoms: _365  and  _367
REMARK  159  A    between atoms: _367  and  _368
REMARK  160  A    between atoms: _370  and  _372
REMARK  161  A    between atoms: _372  and  _373
REMARK  162  A    between atoms: _372  and  _375
REMARK  163  A    between atoms: _375  and  _376
REMARK  164  A    between atoms: _381  and  _383
REMARK  165  A    between atoms: _383  and  _384
REMARK  166  A    between atoms: _383  and  _386
REMARK  167  A    between atoms: _386  and  _387
REMARK  168  A    between atoms: _390  and  _392
REMARK  169  A    between atoms: _392  and  _393
REMARK  170  A    between atoms: _392  and  _395
REMARK  171  A    between atoms: _398  and  _400
REMARK  172  A    between atoms: _400  and  _401
REMARK  173  A    between atoms: _400  and  _403
REMARK  174  A    between atoms: _403  and  _404
REMARK  175  A    between atoms: _406  and  _408
REMARK  176  A    between atoms: _408  and  _409
REMARK  177  A    between atoms: _408  and  _411
REMARK  178  A    between atoms: _411  and  _412
REMARK  179  A    between atoms: _422  and  _424
REMARK  180  A    between atoms: _424  and  _425
REMARK  181  A    between atoms: _427  and  _429
REMARK  182  A    between atoms: _429  and  _430
REMARK  183  A    between atoms: _429  and  _432
REMARK  184  A    between atoms: _432  and  _433
REMARK  185  A    between atoms: _433  and  _434
REMARK  186  A    between atoms: _437  and  _439
REMARK  187  A    between atoms: _439  and  _440
REMARK  188  A    between atoms: _442  and  _444
REMARK  189  A    between atoms: _444  and  _445
REMARK  190  A    between atoms: _444  and  _447
REMARK  191  A    between atoms: _447  and  _448
REMARK  192  A    between atoms: _449  and  _451
REMARK  193  A    between atoms: _451  and  _452
REMARK  194  A    between atoms: _455  and  _457
REMARK  195  A    between atoms: _457  and  _458
REMARK  196  A    between atoms: _457  and  _460
REMARK  197  A    between atoms: _460  and  _461
REMARK  198  A    between atoms: _461  and  _462
REMARK  199  A    between atoms: _462  and  _463
REMARK  200  A    between atoms: _472  and  _474
REMARK  201  A    between atoms: _474  and  _475
REMARK  202  A    between atoms: _474  and  _477
REMARK  203  A    between atoms: _477  and  _478
REMARK  204  A    between atoms: _478  and  _479
REMARK  205  A    between atoms: _479  and  _480
REMARK  206  A    between atoms: _480  and  _481
REMARK  207  A    between atoms: _485  and  _487
REMARK  208  A    between atoms: _487  and  _488
REMARK  209  A    between atoms: _487  and  _490
REMARK  210  A    between atoms: _490  and  _491
REMARK  211  A    between atoms: _496  and  _497
REMARK  212  A    between atoms: _499  and  _501
REMARK  213  A    between atoms: _501  and  _502
REMARK  214  A    between atoms: _504  and  _506
REMARK  215  A    between atoms: _506  and  _507
REMARK  216  A    between atoms: _506  and  _509
REMARK  217  A    between atoms: _509  and  _510
REMARK  218  A    between atoms: _513  and  _515
REMARK  219  A    between atoms: _515  and  _516
REMARK  220  A    between atoms: _515  and  _518
REMARK  221  A    between atoms: _518  and  _519
REMARK  222  A    between atoms: _524  and  _525
REMARK  223  A    between atoms: _527  and  _529
REMARK  224  A    between atoms: _529  and  _530
REMARK  225  A    between atoms: _529  and  _532
REMARK  226  A    between atoms: _532  and  _533
REMARK                            x       y       z     vdW  Elec       q    Type
REMARK                         _______ _______ _______ _____ _____    ______ ____
ROOT
ATOM      1  O   HOH     1       7.261  65.339  -1.074  0.00  0.00    +0.000 OA
ENDROOT
TORSDOF 0
