REMARK  Name = ../refined-set-2016/4ljh/4ljh_pocket.pdb
REMARK  103 active torsions:
REMARK  status: ('A' for Active; 'I' for Inactive)
REMARK    1  A    between atoms: _1  and  _3
REMARK    2  A    between atoms: _3  and  _4
REMARK    3  A    between atoms: _3  and  _6
REMARK    4  A    between atoms: _6  and  _7
REMARK    5  A    between atoms: _9  and  _11
REMARK    6  A    between atoms: _11  and  _12
REMARK    7  A    between atoms: _11  and  _14
REMARK    8  A    between atoms: _12  and  _13
REMARK    9  A    between atoms: _12  and  _23
REMARK   10  A    between atoms: _13  and  CA_260
REMARK   11  A    between atoms: _14  and  _15
REMARK   12  A    between atoms: _20  and  _21
REMARK   13  A    between atoms: _23  and  _25
REMARK   14  A    between atoms: _25  and  _26
REMARK   15  A    between atoms: _29  and  _30
REMARK   16  A    between atoms: _35  and  _37
REMARK   17  A    between atoms: _37  and  _38
REMARK   18  A    between atoms: _37  and  _40
REMARK   19  A    between atoms: _40  and  _41
REMARK   20  A    between atoms: _44  and  _46
REMARK   21  A    between atoms: _46  and  _47
REMARK   22  A    between atoms: _46  and  _49
REMARK   23  A    between atoms: _49  and  _50
REMARK   24  A    between atoms: _50  and  _51
REMARK   25  A    between atoms: _56  and  _58
REMARK   26  A    between atoms: _58  and  _59
REMARK   27  A    between atoms: _58  and  _61
REMARK   28  A    between atoms: _61  and  _62
REMARK   29  A    between atoms: _72  and  _74
REMARK   30  A    between atoms: _74  and  _75
REMARK   31  A    between atoms: _74  and  _77
REMARK   32  A    between atoms: _77  and  _78
REMARK   33  A    between atoms: _81  and  _83
REMARK   34  A    between atoms: _83  and  _84
REMARK   35  A    between atoms: _83  and  _86
REMARK   36  A    between atoms: _86  and  _87
REMARK   37  A    between atoms: _87  and  _88
REMARK   38  A    between atoms: _91  and  _93
REMARK   39  A    between atoms: _93  and  _94
REMARK   40  A    between atoms: _93  and  _96
REMARK   41  A    between atoms: _96  and  _97
REMARK   42  A    between atoms: _103  and  _104
REMARK   43  A    between atoms: _109  and  _111
REMARK   44  A    between atoms: _111  and  _112
REMARK   45  A    between atoms: _111  and  _114
REMARK   46  A    between atoms: _114  and  _115
REMARK   47  A    between atoms: _118  and  _120
REMARK   48  A    between atoms: _120  and  _121
REMARK   49  A    between atoms: _120  and  _123
REMARK   50  A    between atoms: _123  and  _124
REMARK   51  A    between atoms: _124  and  _125
REMARK   52  A    between atoms: _130  and  _132
REMARK   53  A    between atoms: _132  and  _133
REMARK   54  A    between atoms: _135  and  _137
REMARK   55  A    between atoms: _137  and  _138
REMARK   56  A    between atoms: _137  and  _140
REMARK   57  A    between atoms: _140  and  _141
REMARK   58  A    between atoms: _144  and  _146
REMARK   59  A    between atoms: _146  and  _147
REMARK   60  A    between atoms: _146  and  _149
REMARK   61  A    between atoms: _151  and  _153
REMARK   62  A    between atoms: _153  and  _154
REMARK   63  A    between atoms: _156  and  _158
REMARK   64  A    between atoms: _158  and  _159
REMARK   65  A    between atoms: _158  and  _161
REMARK   66  A    between atoms: _161  and  _162
REMARK   67  A    between atoms: _167  and  _168
REMARK   68  A    between atoms: _170  and  _172
REMARK   69  A    between atoms: _172  and  _173
REMARK   70  A    between atoms: _172  and  _175
REMARK   71  A    between atoms: _175  and  _176
REMARK   72  A    between atoms: _181  and  _183
REMARK   73  A    between atoms: _183  and  _184
REMARK   74  A    between atoms: _183  and  _186
REMARK   75  A    between atoms: _186  and  _187
REMARK   76  A    between atoms: _190  and  _192
REMARK   77  A    between atoms: _192  and  _193
REMARK   78  A    between atoms: _192  and  _195
REMARK   79  A    between atoms: _199  and  _200
REMARK   80  A    between atoms: _205  and  _207
REMARK   81  A    between atoms: _207  and  _208
REMARK   82  A    between atoms: _210  and  _212
REMARK   83  A    between atoms: _212  and  _213
REMARK   84  A    between atoms: _212  and  _215
REMARK   85  A    between atoms: _213  and  _214
REMARK   86  A    between atoms: _213  and  _219
REMARK   87  A    between atoms: _214  and  CA_260
REMARK   88  A    between atoms: _215  and  _216
REMARK   89  A    between atoms: _219  and  _221
REMARK   90  A    between atoms: _221  and  _222
REMARK   91  A    between atoms: _221  and  _224
REMARK   92  A    between atoms: _224  and  _225
REMARK   93  A    between atoms: _230  and  _231
REMARK   94  A    between atoms: _233  and  _235
REMARK   95  A    between atoms: _235  and  _236
REMARK   96  A    between atoms: _238  and  _240
REMARK   97  A    between atoms: _240  and  _241
REMARK   98  A    between atoms: _240  and  _243
REMARK   99  A    between atoms: _243  and  _244
REMARK  100  A    between atoms: _249  and  _251
REMARK  101  A    between atoms: _251  and  _252
REMARK  102  A    between atoms: _251  and  _254
REMARK  103  A    between atoms: _254  and  _255
REMARK                            x       y       z     vdW  Elec       q    Type
REMARK                         _______ _______ _______ _____ _____    ______ ____
ROOT
ATOM      1  C   UNK A   1      20.038   5.078  31.148  0.00  0.00    +0.000 C 
ENDROOT
BRANCH   1   2
ATOM      2  N   UNK A   1      20.097   4.118  30.233  0.00  0.00    +0.000 NA
ATOM      3  H   UNK A   1      21.016   3.849  29.826  0.00  0.00    +0.000 HD
BRANCH   2   4
ATOM      4  C   UNK A   1      18.884   3.437  29.793  0.00  0.00    +0.000 C 
BRANCH   4   5
ATOM      5  C   UNK A   1      18.320   2.449  30.819  0.00  0.00    +0.000 C 
ATOM      6  N   GLY A   2      19.128   2.072  31.812  0.00  0.00    +0.000 N 
ATOM      7  H   GLY A   2      20.045   2.548  31.934  0.00  0.00    +0.000 HD
ATOM      8  O   UNK A   1      17.158   2.046  30.720  0.00  0.00    +0.000 OA
BRANCH   6   9
ATOM      9  CA  GLY A   2      18.748   1.009  32.724  0.00  0.00    +0.000 C 
BRANCH   9  10
ATOM     10  C   GLY A   2      17.513   1.248  33.577  0.00  0.00    +0.000 C 
ATOM     11  O   GLY A   2      16.868   0.294  34.001  0.00  0.00    +0.000 OA
ATOM     12  N   ASN A   3      17.186   2.509  33.843  0.00  0.00    +0.000 N 
ATOM     13  H   ASN A   3      17.779   3.280  33.474  0.00  0.00    +0.000 HD
BRANCH  12  14
ATOM     14  CA  ASN A   3      16.003   2.832  34.648  0.00  0.00    +0.000 C 
BRANCH  14  15
ATOM     15  C   ASN A   3      14.780   3.202  33.802  0.00  0.00    +0.000 C 
ATOM     16  O   ASN A   3      13.782   3.698  34.319  0.00  0.00    +0.000 OA
ATOM     17  N   ASN A   4      14.859   2.954  32.500  0.00  0.00    +0.000 N 
ATOM     18  H   ASN A   4      15.716   2.512  32.111  0.00  0.00    +0.000 HD
BRANCH  17  19
ATOM     19  CA  ASN A   4      13.758   3.295  31.612  0.00  0.00    +0.000 C 
BRANCH  19  20
ATOM     20  C   ASN A   4      12.669   2.246  31.642  0.00  0.00    +0.000 C 
ATOM     21  O   ASN A   4      12.910   1.088  31.988  0.00  0.00    +0.000 OA
ENDBRANCH  19  20
BRANCH  19  22
ATOM     22  CB  ASN A   4      14.272   3.469  30.179  0.00  0.00    +0.000 C 
BRANCH  22  23
ATOM     23  CG  ASN A   4      15.230   4.635  30.052  0.00  0.00    +0.000 C 
ATOM     24  OD1 ASN A   4      15.519   5.308  31.027  0.00  0.00    +0.000 OA
ATOM     25  ND2 ASN A   4      15.717   4.885  28.843  0.00  0.00    +0.000 N 
ATOM     26 HD21 ASN A   4      16.372   5.680  28.700  0.00  0.00    +0.000 HD
ATOM     27 HD22 ASN A   4      15.444   4.285  28.038  0.00  0.00    +0.000 HD
ENDBRANCH  22  23
ENDBRANCH  19  22
ENDBRANCH  17  19
ENDBRANCH  14  15
BRANCH  14  28
ATOM     28  CB  ASN A   3      16.321   3.961  35.630  0.00  0.00    +0.000 C 
BRANCH  28  29
ATOM     29  CG  ASN A   3      16.615   5.260  34.936  0.00  0.00    +0.000 C 
ATOM     30  ND2 ASN A   3      16.551   6.362  35.672  0.00  0.00    +0.000 N 
ATOM     31 HD21 ASN A   3      16.305   6.300  36.681  0.00  0.00    +0.000 HD
ATOM     32 HD22 ASN A   3      16.747   7.288  35.240  0.00  0.00    +0.000 HD
ATOM     33  OD1 ASN A   3      16.901   5.275  33.741  0.00  0.00    +0.000 OA
ENDBRANCH  28  29
ENDBRANCH  14  28
ENDBRANCH  12  14
ENDBRANCH   9  10
ENDBRANCH   6   9
ENDBRANCH   4   5
BRANCH   4  34
ATOM     34  C   UNK A   1      19.126   2.722  28.465  0.00  0.00    +0.000 C 
BRANCH  34  35
ATOM     35  C   UNK A   1      19.121   3.634  27.257  0.00  0.00    +0.000 A 
ATOM     36  C   UNK A   1      20.194   4.473  26.992  0.00  0.00    +0.000 A 
ATOM     37  C   UNK A   1      20.197   5.302  25.892  0.00  0.00    +0.000 A 
ATOM     38  C   UNK A   1      19.118   5.297  25.035  0.00  0.00    +0.000 A 
ATOM     39  C   UNK A   1      18.045   4.467  25.272  0.00  0.00    +0.000 A 
ATOM     40  C   UNK A   1      18.048   3.644  26.371  0.00  0.00    +0.000 A 
BRANCH  38  41
ATOM     41  O   UNK A   1      19.125   6.114  23.933  0.00  0.00    +0.000 OA
ATOM     42  H   UNK A   1      18.351   6.730  23.975  0.00  0.00    +0.000 HD
ENDBRANCH  38  41
ENDBRANCH  34  35
ENDBRANCH   4  34
ENDBRANCH   2   4
ENDBRANCH   1   2
BRANCH   1  43
ATOM     43  O   UNK A   1      18.984   5.401  31.691  0.00  0.00    +0.000 OA
BRANCH  43  44
ATOM     44 CA   UNK A   1      17.133   6.906  31.905  0.00  0.00    +0.000 Ca
BRANCH  44  45
ATOM     45  O   UNK A   1      15.076   7.810  32.728  0.00  0.00    +0.000 OA
BRANCH  45  46
ATOM     46  C   UNK A   1      13.899   7.696  32.416  0.00  0.00    +0.000 C 
BRANCH  46  47
ATOM     47  N   UNK A   1      12.950   7.506  33.325  0.00  0.00    +0.000 NA
ATOM     48  H   UNK A   1      11.956   7.438  33.026  0.00  0.00    +0.000 HD
BRANCH  47  49
ATOM     49  C   UNK A   1      13.288   7.392  34.739  0.00  0.00    +0.000 C 
BRANCH  49  50
ATOM     50  C   UNK A   1      12.136   7.658  35.698  0.00  0.00    +0.000 C 
ATOM     51  O   UNK A   1      11.846   6.838  36.574  0.00  0.00    +0.000 OA
ATOM     52  N   UNK A   1      11.471   8.814  35.552  0.00  0.00    +0.000 N 
ATOM     53  C   UNK A   1      10.353   9.140  36.450  0.00  0.00    +0.000 C 
ATOM     54  C   UNK A   1       9.921  10.529  35.971  0.00  0.00    +0.000 C 
ATOM     55  C   UNK A   1      11.155  11.120  35.402  0.00  0.00    +0.000 C 
ATOM     56  C   UNK A   1      11.864   9.971  34.727  0.00  0.00    +0.000 C 
BRANCH  53  57
ATOM     57  C   UNK A   1       9.167   8.174  36.387  0.00  0.00    +0.000 C 
ATOM     58  N   UNK A   1       8.292   8.268  37.390  0.00  0.00    +0.000 N 
ATOM     59  H   UNK A   1       8.458   8.950  38.158  0.00  0.00    +0.000 HD
ATOM     60  O   UNK A   1       9.027   7.372  35.453  0.00  0.00    +0.000 OA
BRANCH  58  61
ATOM     61  C   UNK A   1       7.105   7.421  37.417  0.00  0.00    +0.000 C 
BRANCH  61  62
ATOM     62  C   UNK A   1       6.118   7.796  36.307  0.00  0.00    +0.000 C 
ATOM     63  N   GLY A   2       6.124   9.063  35.905  0.00  0.00    +0.000 N 
ATOM     64  H   GLY A   2       6.729   9.751  36.397  0.00  0.00    +0.000 HD
ATOM     65  O   UNK A   1       5.365   6.951  35.827  0.00  0.00    +0.000 OA
BRANCH  63  66
ATOM     66  CA  GLY A   2       5.295   9.511  34.782  0.00  0.00    +0.000 C 
BRANCH  66  67
ATOM     67  C   GLY A   2       5.763   8.871  33.477  0.00  0.00    +0.000 C 
ATOM     68  O   GLY A   2       6.905   8.423  33.375  0.00  0.00    +0.000 OA
ENDBRANCH  66  67
BRANCH  66  69
ATOM     69  CB  GLY A   2       5.395  11.028  34.650  0.00  0.00    +0.000 C 
BRANCH  69  70
ATOM     70  CG  GLY A   2       4.833  11.778  35.840  0.00  0.00    +0.000 C 
BRANCH  70  71
ATOM     71  CD  GLY A   2       5.414  13.176  35.970  0.00  0.00    +0.000 C 
ATOM     72  OE1 GLY A   2       5.711  13.634  37.072  0.00  0.00    +0.000 OA
ATOM     73  NE2 GLY A   2       5.583  13.858  34.842  0.00  0.00    +0.000 N 
ATOM     74 HE21 GLY A   2       5.981  14.819  34.870  0.00  0.00    +0.000 HD
ATOM     75 HE22 GLY A   2       5.318  13.431  33.932  0.00  0.00    +0.000 HD
ENDBRANCH  70  71
ENDBRANCH  69  70
ENDBRANCH  66  69
ENDBRANCH  63  66
ENDBRANCH  61  62
BRANCH  61  76
ATOM     76  C   UNK A   1       6.389   7.465  38.784  0.00  0.00    +0.000 C 
ATOM     77  C   UNK A   1       7.298   6.921  39.883  0.00  0.00    +0.000 C 
BRANCH  76  78
ATOM     78  O   UNK A   1       6.025   8.816  39.099  0.00  0.00    +0.000 OA
ATOM     79  H   UNK A   1       5.567   8.837  39.976  0.00  0.00    +0.000 HD
ENDBRANCH  76  78
ENDBRANCH  61  76
ENDBRANCH  58  61
ENDBRANCH  53  57
ENDBRANCH  49  50
ENDBRANCH  47  49
ENDBRANCH  46  47
BRANCH  46  80
ATOM     80  C   UNK A   1      13.475   7.800  30.946  0.00  0.00    +0.000 C 
BRANCH  80  82
ATOM     81  C   UNK A   1      11.287   6.723  30.619  0.00  0.00    +0.000 C 
ATOM     82  N   UNK A   1      12.018   7.813  30.825  0.00  0.00    +0.000 N 
ATOM     83  H   UNK A   1      11.527   8.726  30.905  0.00  0.00    +0.000 HD
ATOM     84  O   UNK A   1      11.756   5.600  30.426  0.00  0.00    +0.000 OA
BRANCH  81  85
ATOM     85  C   UNK A   1       9.786   6.940  30.654  0.00  0.00    +0.000 C 
BRANCH  85  86
ATOM     86  N   UNK A   1       9.088   6.004  29.779  0.00  0.00    +0.000 NA
ATOM     87  H   UNK A   1       9.354   4.999  29.786  0.00  0.00    +0.000 HD
ENDBRANCH  85  86
BRANCH  85  88
ATOM     88  C   UNK A   1       9.299   6.795  32.099  0.00  0.00    +0.000 C 
BRANCH  88  89
ATOM     89  O   UNK A   1      10.057   7.620  32.968  0.00  0.00    +0.000 OA
ATOM     90  H   UNK A   1       9.727   7.512  33.895  0.00  0.00    +0.000 HD
ENDBRANCH  88  89
ENDBRANCH  85  88
ENDBRANCH  81  85
ENDBRANCH  80  82
BRANCH  80  91
ATOM     91  C   UNK A   1      14.058   9.076  30.328  0.00  0.00    +0.000 C 
BRANCH  91  92
ATOM     92  C   UNK A   1      13.420  10.336  30.863  0.00  0.00    +0.000 A 
ATOM     93  C   UNK A   1      13.889  10.930  32.029  0.00  0.00    +0.000 A 
ATOM     94  C   UNK A   1      13.297  12.076  32.543  0.00  0.00    +0.000 A 
ATOM     95  C   UNK A   1      12.222  12.640  31.891  0.00  0.00    +0.000 A 
ATOM     96  C   UNK A   1      11.722  12.062  30.731  0.00  0.00    +0.000 A 
ATOM     97  C   UNK A   1      12.325  10.917  30.223  0.00  0.00    +0.000 A 
BRANCH  95  98
ATOM     98  O   UNK A   1      11.640  13.777  32.408  0.00  0.00    +0.000 OA
ATOM     99  H   UNK A   1      10.887  14.054  31.828  0.00  0.00    +0.000 HD
ENDBRANCH  95  98
ENDBRANCH  91  92
ENDBRANCH  80  91
ENDBRANCH  46  80
ENDBRANCH  45  46
ENDBRANCH  44  45
ENDBRANCH  43  44
ENDBRANCH   1  43
BRANCH   1 100
ATOM    100  C   UNK A   1      21.345   5.763  31.533  0.00  0.00    +0.000 C 
BRANCH 100 101
ATOM    101  N   UNK A   1      22.422   5.496  30.583  0.00  0.00    +0.000 N 
ATOM    102  C   UNK A   1      23.516   4.831  30.960  0.00  0.00    +0.000 C 
ATOM    103  O   UNK A   1      23.648   4.334  32.080  0.00  0.00    +0.000 OA
ATOM    104  H   UNK A   1      22.335   5.828  29.601  0.00  0.00    +0.000 HD
BRANCH 102 105
ATOM    105  C   UNK A   1      24.631   4.693  29.939  0.00  0.00    +0.000 C 
BRANCH 105 106
ATOM    106  N   UNK A   1      24.295   5.178  28.615  0.00  0.00    +0.000 N 
ATOM    107  C   UNK A   1      24.430   6.457  28.280  0.00  0.00    +0.000 C 
ATOM    108  O   UNK A   1      24.822   7.320  29.064  0.00  0.00    +0.000 OA
ATOM    109  H   UNK A   1      23.938   4.506  27.907  0.00  0.00    +0.000 HD
BRANCH 107 110
ATOM    110  C   UNK A   1      24.048   6.833  26.844  0.00  0.00    +0.000 C 
ATOM    111  N   UNK A   1      23.353   8.124  26.790  0.00  0.00    +0.000 N 
ATOM    112  C   UNK A   1      22.297   8.319  27.601  0.00  0.00    +0.000 C 
ATOM    113  O   UNK A   1      21.889   7.444  28.360  0.00  0.00    +0.000 OA
ATOM    114  C   UNK A   1      23.891   9.004  25.739  0.00  0.00    +0.000 C 
ATOM    115  C   UNK A   1      24.859   8.106  24.996  0.00  0.00    +0.000 C 
ATOM    116  C   UNK A   1      25.304   7.084  26.003  0.00  0.00    +0.000 C 
BRANCH 112 117
ATOM    117  C   UNK A   1      21.601   9.675  27.539  0.00  0.00    +0.000 C 
BRANCH 117 118
ATOM    118  N   UNK A   1      20.158   9.487  27.420  0.00  0.00    +0.000 N 
ATOM    119  H   UNK A   1      19.574   9.530  28.280  0.00  0.00    +0.000 HD
ATOM    120  C   UNK A   1      19.564   9.263  26.254  0.00  0.00    +0.000 C 
ATOM    121  O   UNK A   1      20.170   9.214  25.180  0.00  0.00    +0.000 OA
BRANCH 120 122
ATOM    122  C   UNK A   1      18.061   9.041  26.310  0.00  0.00    +0.000 C 
BRANCH 122 123
ATOM    123  N   UNK A   1      17.588   8.812  24.945  0.00  0.00    +0.000 N 
ATOM    124  C   UNK A   1      16.411   9.261  24.517  0.00  0.00    +0.000 C 
ATOM    125  O   UNK A   1      15.600   9.816  25.259  0.00  0.00    +0.000 OA
ATOM    126  H   UNK A   1      18.192   8.280  24.287  0.00  0.00    +0.000 HD
BRANCH 124 127
ATOM    127  C   UNK A   1      16.106   9.047  23.033  0.00  0.00    +0.000 C 
BRANCH 127 128
ATOM    128  N   UNK A   1      15.141   7.973  22.814  0.00  0.00    +0.000 N 
ATOM    129  C   UNK A   1      15.511   6.695  22.785  0.00  0.00    +0.000 C 
ATOM    130  O   UNK A   1      16.683   6.328  22.933  0.00  0.00    +0.000 OA
ATOM    131  H   UNK A   1      14.138   8.213  22.677  0.00  0.00    +0.000 HD
BRANCH 129 132
ATOM    132  C   UNK A   1      14.411   5.671  22.553  0.00  0.00    +0.000 C 
BRANCH 132 133
ATOM    133  N   UNK A   1      14.900   4.697  21.588  0.00  0.00    +0.000 NA
ATOM    134  H   UNK A   1      15.145   3.742  21.920  0.00  0.00    +0.000 HD
ENDBRANCH 132 133
BRANCH 132 135
ATOM    135  C   UNK A   1      14.087   4.951  23.861  0.00  0.00    +0.000 C 
BRANCH 135 136
ATOM    136  C   UNK A   1      13.286   5.739  24.883  0.00  0.00    +0.000 A 
ATOM    137  C   UNK A   1      13.844   6.118  26.092  0.00  0.00    +0.000 A 
ATOM    138  C   UNK A   1      13.112   6.816  27.039  0.00  0.00    +0.000 A 
ATOM    139  C   UNK A   1      11.787   7.130  26.779  0.00  0.00    +0.000 A 
ATOM    140  C   UNK A   1      11.204   6.755  25.589  0.00  0.00    +0.000 A 
ATOM    141  C   UNK A   1      11.956   6.058  24.648  0.00  0.00    +0.000 A 
BRANCH 139 142
ATOM    142  O   UNK A   1      11.036   7.819  27.717  0.00  0.00    +0.000 OA
ATOM    143  H   UNK A   1      10.120   7.956  27.368  0.00  0.00    +0.000 HD
ENDBRANCH 139 142
ENDBRANCH 135 136
ENDBRANCH 132 135
ENDBRANCH 129 132
ENDBRANCH 127 128
BRANCH 127 144
ATOM    144  C   UNK A   1      15.605  10.357  22.417  0.00  0.00    +0.000 C 
BRANCH 144 145
ATOM    145  C   UNK A   1      16.711  11.383  22.230  0.00  0.00    +0.000 C 
ATOM    146  O   UNK A   1      17.889  11.037  22.167  0.00  0.00    +0.000 OA
ATOM    147  N   UNK A   1      16.334  12.654  22.131  0.00  0.00    +0.000 N 
ATOM    148  H   UNK A   1      15.326  12.904  22.190  0.00  0.00    +0.000 HD
ATOM    149  H   UNK A   1      17.047  13.399  21.995  0.00  0.00    +0.000 HD
ENDBRANCH 144 145
ENDBRANCH 127 144
ENDBRANCH 124 127
ENDBRANCH 122 123
BRANCH 122 150
ATOM    150  C   UNK A   1      17.740   7.843  27.215  0.00  0.00    +0.000 C 
BRANCH 150 151
ATOM    151  C   UNK A   1      17.613   8.220  28.694  0.00  0.00    +0.000 C 
ATOM    152  O   UNK A   1      17.182   7.345  29.469  0.00  0.00    +0.000 OA
ATOM    153  O   UNK A   1      17.931   9.364  29.091  0.00  0.00    +0.000 OA
ENDBRANCH 150 151
ENDBRANCH 122 150
ENDBRANCH 120 122
ENDBRANCH 117 118
BRANCH 117 154
ATOM    154  C   UNK A   1      21.928  10.477  28.809  0.00  0.00    +0.000 C 
ATOM    155  C   UNK A   1      23.444  10.591  29.007  0.00  0.00    +0.000 C 
ATOM    156  C   UNK A   1      21.282  11.851  28.745  0.00  0.00    +0.000 C 
ENDBRANCH 117 154
ENDBRANCH 112 117
ENDBRANCH 107 110
ENDBRANCH 105 106
ENDBRANCH 102 105
ENDBRANCH 100 101
BRANCH 100 157
ATOM    157  C   UNK A   1      21.055   7.282  31.692  0.00  0.00    +0.000 C 
ATOM    158  C   UNK A   1      22.333   8.073  31.854  0.00  0.00    +0.000 C 
BRANCH 157 159
ATOM    159  O   UNK A   1      20.327   7.767  30.554  0.00  0.00    +0.000 OA
ATOM    160  H   UNK A   1      20.863   7.622  29.734  0.00  0.00    +0.000 HD
ENDBRANCH 157 159
ENDBRANCH 100 157
ENDBRANCH   1 100
TORSDOF 65
REMARK  Name = ../refined-set-2016/4ljh/4ljh_pocket.pdb
REMARK  103 active torsions:
REMARK  status: ('A' for Active; 'I' for Inactive)
REMARK    1  A    between atoms: _1  and  _3
REMARK    2  A    between atoms: _3  and  _4
REMARK    3  A    between atoms: _3  and  _6
REMARK    4  A    between atoms: _6  and  _7
REMARK    5  A    between atoms: _9  and  _11
REMARK    6  A    between atoms: _11  and  _12
REMARK    7  A    between atoms: _11  and  _14
REMARK    8  A    between atoms: _12  and  _13
REMARK    9  A    between atoms: _12  and  _23
REMARK   10  A    between atoms: _13  and  CA_260
REMARK   11  A    between atoms: _14  and  _15
REMARK   12  A    between atoms: _20  and  _21
REMARK   13  A    between atoms: _23  and  _25
REMARK   14  A    between atoms: _25  and  _26
REMARK   15  A    between atoms: _29  and  _30
REMARK   16  A    between atoms: _35  and  _37
REMARK   17  A    between atoms: _37  and  _38
REMARK   18  A    between atoms: _37  and  _40
REMARK   19  A    between atoms: _40  and  _41
REMARK   20  A    between atoms: _44  and  _46
REMARK   21  A    between atoms: _46  and  _47
REMARK   22  A    between atoms: _46  and  _49
REMARK   23  A    between atoms: _49  and  _50
REMARK   24  A    between atoms: _50  and  _51
REMARK   25  A    between atoms: _56  and  _58
REMARK   26  A    between atoms: _58  and  _59
REMARK   27  A    between atoms: _58  and  _61
REMARK   28  A    between atoms: _61  and  _62
REMARK   29  A    between atoms: _72  and  _74
REMARK   30  A    between atoms: _74  and  _75
REMARK   31  A    between atoms: _74  and  _77
REMARK   32  A    between atoms: _77  and  _78
REMARK   33  A    between atoms: _81  and  _83
REMARK   34  A    between atoms: _83  and  _84
REMARK   35  A    between atoms: _83  and  _86
REMARK   36  A    between atoms: _86  and  _87
REMARK   37  A    between atoms: _87  and  _88
REMARK   38  A    between atoms: _91  and  _93
REMARK   39  A    between atoms: _93  and  _94
REMARK   40  A    between atoms: _93  and  _96
REMARK   41  A    between atoms: _96  and  _97
REMARK   42  A    between atoms: _103  and  _104
REMARK   43  A    between atoms: _109  and  _111
REMARK   44  A    between atoms: _111  and  _112
REMARK   45  A    between atoms: _111  and  _114
REMARK   46  A    between atoms: _114  and  _115
REMARK   47  A    between atoms: _118  and  _120
REMARK   48  A    between atoms: _120  and  _121
REMARK   49  A    between atoms: _120  and  _123
REMARK   50  A    between atoms: _123  and  _124
REMARK   51  A    between atoms: _124  and  _125
REMARK   52  A    between atoms: _130  and  _132
REMARK   53  A    between atoms: _132  and  _133
REMARK   54  A    between atoms: _135  and  _137
REMARK   55  A    between atoms: _137  and  _138
REMARK   56  A    between atoms: _137  and  _140
REMARK   57  A    between atoms: _140  and  _141
REMARK   58  A    between atoms: _144  and  _146
REMARK   59  A    between atoms: _146  and  _147
REMARK   60  A    between atoms: _146  and  _149
REMARK   61  A    between atoms: _151  and  _153
REMARK   62  A    between atoms: _153  and  _154
REMARK   63  A    between atoms: _156  and  _158
REMARK   64  A    between atoms: _158  and  _159
REMARK   65  A    between atoms: _158  and  _161
REMARK   66  A    between atoms: _161  and  _162
REMARK   67  A    between atoms: _167  and  _168
REMARK   68  A    between atoms: _170  and  _172
REMARK   69  A    between atoms: _172  and  _173
REMARK   70  A    between atoms: _172  and  _175
REMARK   71  A    between atoms: _175  and  _176
REMARK   72  A    between atoms: _181  and  _183
REMARK   73  A    between atoms: _183  and  _184
REMARK   74  A    between atoms: _183  and  _186
REMARK   75  A    between atoms: _186  and  _187
REMARK   76  A    between atoms: _190  and  _192
REMARK   77  A    between atoms: _192  and  _193
REMARK   78  A    between atoms: _192  and  _195
REMARK   79  A    between atoms: _199  and  _200
REMARK   80  A    between atoms: _205  and  _207
REMARK   81  A    between atoms: _207  and  _208
REMARK   82  A    between atoms: _210  and  _212
REMARK   83  A    between atoms: _212  and  _213
REMARK   84  A    between atoms: _212  and  _215
REMARK   85  A    between atoms: _213  and  _214
REMARK   86  A    between atoms: _213  and  _219
REMARK   87  A    between atoms: _214  and  CA_260
REMARK   88  A    between atoms: _215  and  _216
REMARK   89  A    between atoms: _219  and  _221
REMARK   90  A    between atoms: _221  and  _222
REMARK   91  A    between atoms: _221  and  _224
REMARK   92  A    between atoms: _224  and  _225
REMARK   93  A    between atoms: _230  and  _231
REMARK   94  A    between atoms: _233  and  _235
REMARK   95  A    between atoms: _235  and  _236
REMARK   96  A    between atoms: _238  and  _240
REMARK   97  A    between atoms: _240  and  _241
REMARK   98  A    between atoms: _240  and  _243
REMARK   99  A    between atoms: _243  and  _244
REMARK  100  A    between atoms: _249  and  _251
REMARK  101  A    between atoms: _251  and  _252
REMARK  102  A    between atoms: _251  and  _254
REMARK  103  A    between atoms: _254  and  _255
REMARK                            x       y       z     vdW  Elec       q    Type
REMARK                         _______ _______ _______ _____ _____    ______ ____
ROOT
ATOM      1  CG  TRP A   1       6.851  12.274  28.919  0.00  0.00    -0.002 A 
ATOM      2  CD2 TRP A   1       7.492  11.991  30.170  0.00  0.00    +0.013 A 
ATOM      3  CE2 TRP A   1       7.414  13.160  30.956  0.00  0.00    +0.056 A 
ATOM      4  CZ2 TRP A   1       7.948  13.236  32.248  0.00  0.00    +0.017 A 
ATOM      5  CH2 TRP A   1       8.566  12.120  32.743  0.00  0.00    +0.001 A 
ATOM      6  CZ3 TRP A   1       8.658  10.940  31.995  0.00  0.00    +0.000 A 
ATOM      7  NE1 TRP A   1       6.754  14.108  30.220  0.00  0.00    -0.352 N 
ATOM      8  HE1 TRP A   1       6.545  15.078  30.532  0.00  0.00    +0.166 HD
ATOM      9  CE3 TRP A   1       8.134  10.864  30.699  0.00  0.00    +0.001 A 
ATOM     10  CD1 TRP A   1       6.413  13.570  29.001  0.00  0.00    +0.068 A 
ENDROOT
BRANCH   1  11
ATOM     11  CB  TRP A   1       6.670  11.335  27.767  0.00  0.00    +0.053 C 
BRANCH  11  12
ATOM     12  CA  TRP A   1       5.440  10.426  27.899  0.00  0.00    +0.137 C 
BRANCH  12  13
ATOM     13  N   TRP A   1       5.629   9.472  28.981  0.00  0.00    -0.239 NA
ATOM     14  H   TRP A   1       6.354   8.735  28.869  0.00  0.00    +0.142 HD
ENDBRANCH  12  13
BRANCH  12  15
ATOM     15  C   TRP A   1       5.245   9.660  26.604  0.00  0.00    +0.224 C 
ATOM     16  O   TRP A   1       5.682   8.515  26.480  0.00  0.00    -0.287 OA
ENDBRANCH  12  15
ENDBRANCH  11  12
ENDBRANCH   1  11
TORSDOF 4
REMARK  Name = ../refined-set-2016/4ljh/4ljh_pocket.pdb
REMARK  103 active torsions:
REMARK  status: ('A' for Active; 'I' for Inactive)
REMARK    1  A    between atoms: _1  and  _3
REMARK    2  A    between atoms: _3  and  _4
REMARK    3  A    between atoms: _3  and  _6
REMARK    4  A    between atoms: _6  and  _7
REMARK    5  A    between atoms: _9  and  _11
REMARK    6  A    between atoms: _11  and  _12
REMARK    7  A    between atoms: _11  and  _14
REMARK    8  A    between atoms: _12  and  _13
REMARK    9  A    between atoms: _12  and  _23
REMARK   10  A    between atoms: _13  and  CA_260
REMARK   11  A    between atoms: _14  and  _15
REMARK   12  A    between atoms: _20  and  _21
REMARK   13  A    between atoms: _23  and  _25
REMARK   14  A    between atoms: _25  and  _26
REMARK   15  A    between atoms: _29  and  _30
REMARK   16  A    between atoms: _35  and  _37
REMARK   17  A    between atoms: _37  and  _38
REMARK   18  A    between atoms: _37  and  _40
REMARK   19  A    between atoms: _40  and  _41
REMARK   20  A    between atoms: _44  and  _46
REMARK   21  A    between atoms: _46  and  _47
REMARK   22  A    between atoms: _46  and  _49
REMARK   23  A    between atoms: _49  and  _50
REMARK   24  A    between atoms: _50  and  _51
REMARK   25  A    between atoms: _56  and  _58
REMARK   26  A    between atoms: _58  and  _59
REMARK   27  A    between atoms: _58  and  _61
REMARK   28  A    between atoms: _61  and  _62
REMARK   29  A    between atoms: _72  and  _74
REMARK   30  A    between atoms: _74  and  _75
REMARK   31  A    between atoms: _74  and  _77
REMARK   32  A    between atoms: _77  and  _78
REMARK   33  A    between atoms: _81  and  _83
REMARK   34  A    between atoms: _83  and  _84
REMARK   35  A    between atoms: _83  and  _86
REMARK   36  A    between atoms: _86  and  _87
REMARK   37  A    between atoms: _87  and  _88
REMARK   38  A    between atoms: _91  and  _93
REMARK   39  A    between atoms: _93  and  _94
REMARK   40  A    between atoms: _93  and  _96
REMARK   41  A    between atoms: _96  and  _97
REMARK   42  A    between atoms: _103  and  _104
REMARK   43  A    between atoms: _109  and  _111
REMARK   44  A    between atoms: _111  and  _112
REMARK   45  A    between atoms: _111  and  _114
REMARK   46  A    between atoms: _114  and  _115
REMARK   47  A    between atoms: _118  and  _120
REMARK   48  A    between atoms: _120  and  _121
REMARK   49  A    between atoms: _120  and  _123
REMARK   50  A    between atoms: _123  and  _124
REMARK   51  A    between atoms: _124  and  _125
REMARK   52  A    between atoms: _130  and  _132
REMARK   53  A    between atoms: _132  and  _133
REMARK   54  A    between atoms: _135  and  _137
REMARK   55  A    between atoms: _137  and  _138
REMARK   56  A    between atoms: _137  and  _140
REMARK   57  A    between atoms: _140  and  _141
REMARK   58  A    between atoms: _144  and  _146
REMARK   59  A    between atoms: _146  and  _147
REMARK   60  A    between atoms: _146  and  _149
REMARK   61  A    between atoms: _151  and  _153
REMARK   62  A    between atoms: _153  and  _154
REMARK   63  A    between atoms: _156  and  _158
REMARK   64  A    between atoms: _158  and  _159
REMARK   65  A    between atoms: _158  and  _161
REMARK   66  A    between atoms: _161  and  _162
REMARK   67  A    between atoms: _167  and  _168
REMARK   68  A    between atoms: _170  and  _172
REMARK   69  A    between atoms: _172  and  _173
REMARK   70  A    between atoms: _172  and  _175
REMARK   71  A    between atoms: _175  and  _176
REMARK   72  A    between atoms: _181  and  _183
REMARK   73  A    between atoms: _183  and  _184
REMARK   74  A    between atoms: _183  and  _186
REMARK   75  A    between atoms: _186  and  _187
REMARK   76  A    between atoms: _190  and  _192
REMARK   77  A    between atoms: _192  and  _193
REMARK   78  A    between atoms: _192  and  _195
REMARK   79  A    between atoms: _199  and  _200
REMARK   80  A    between atoms: _205  and  _207
REMARK   81  A    between atoms: _207  and  _208
REMARK   82  A    between atoms: _210  and  _212
REMARK   83  A    between atoms: _212  and  _213
REMARK   84  A    between atoms: _212  and  _215
REMARK   85  A    between atoms: _213  and  _214
REMARK   86  A    between atoms: _213  and  _219
REMARK   87  A    between atoms: _214  and  CA_260
REMARK   88  A    between atoms: _215  and  _216
REMARK   89  A    between atoms: _219  and  _221
REMARK   90  A    between atoms: _221  and  _222
REMARK   91  A    between atoms: _221  and  _224
REMARK   92  A    between atoms: _224  and  _225
REMARK   93  A    between atoms: _230  and  _231
REMARK   94  A    between atoms: _233  and  _235
REMARK   95  A    between atoms: _235  and  _236
REMARK   96  A    between atoms: _238  and  _240
REMARK   97  A    between atoms: _240  and  _241
REMARK   98  A    between atoms: _240  and  _243
REMARK   99  A    between atoms: _243  and  _244
REMARK  100  A    between atoms: _249  and  _251
REMARK  101  A    between atoms: _251  and  _252
REMARK  102  A    between atoms: _251  and  _254
REMARK  103  A    between atoms: _254  and  _255
REMARK                            x       y       z     vdW  Elec       q    Type
REMARK                         _______ _______ _______ _____ _____    ______ ____
ROOT
ATOM      1  CA  ASP A   1       9.212  15.361  27.525  0.00  0.00    +0.144 C 
ENDROOT
BRANCH   1   2
ATOM      2  N   ASP A   1       9.532  14.393  26.478  0.00  0.00    -0.239 NA
ATOM      3  H   ASP A   1      10.518  14.075  26.383  0.00  0.00    +0.142 HD
ENDBRANCH   1   2
BRANCH   1   4
ATOM      4  C   ASP A   1       9.768  16.723  27.122  0.00  0.00    +0.225 C 
ATOM      5  O   ASP A   1      10.975  16.952  27.164  0.00  0.00    -0.287 OA
ENDBRANCH   1   4
BRANCH   1   6
ATOM      6  CB  ASP A   1       9.822  14.884  28.854  0.00  0.00    +0.139 C 
BRANCH   6   7
ATOM      7  CG  ASP A   1       9.612  15.864  30.002  0.00  0.00    +0.367 C 
ATOM      8  OD2 ASP A   1      10.113  15.571  31.106  0.00  0.00    -0.246 OA
ATOM      9  OD1 ASP A   1       8.936  16.899  29.826  0.00  0.00    -0.246 OA
ENDBRANCH   6   7
ENDBRANCH   1   6
TORSDOF 4
REMARK  Name = ../refined-set-2016/4ljh/4ljh_pocket.pdb
REMARK  103 active torsions:
REMARK  status: ('A' for Active; 'I' for Inactive)
REMARK    1  A    between atoms: _1  and  _3
REMARK    2  A    between atoms: _3  and  _4
REMARK    3  A    between atoms: _3  and  _6
REMARK    4  A    between atoms: _6  and  _7
REMARK    5  A    between atoms: _9  and  _11
REMARK    6  A    between atoms: _11  and  _12
REMARK    7  A    between atoms: _11  and  _14
REMARK    8  A    between atoms: _12  and  _13
REMARK    9  A    between atoms: _12  and  _23
REMARK   10  A    between atoms: _13  and  CA_260
REMARK   11  A    between atoms: _14  and  _15
REMARK   12  A    between atoms: _20  and  _21
REMARK   13  A    between atoms: _23  and  _25
REMARK   14  A    between atoms: _25  and  _26
REMARK   15  A    between atoms: _29  and  _30
REMARK   16  A    between atoms: _35  and  _37
REMARK   17  A    between atoms: _37  and  _38
REMARK   18  A    between atoms: _37  and  _40
REMARK   19  A    between atoms: _40  and  _41
REMARK   20  A    between atoms: _44  and  _46
REMARK   21  A    between atoms: _46  and  _47
REMARK   22  A    between atoms: _46  and  _49
REMARK   23  A    between atoms: _49  and  _50
REMARK   24  A    between atoms: _50  and  _51
REMARK   25  A    between atoms: _56  and  _58
REMARK   26  A    between atoms: _58  and  _59
REMARK   27  A    between atoms: _58  and  _61
REMARK   28  A    between atoms: _61  and  _62
REMARK   29  A    between atoms: _72  and  _74
REMARK   30  A    between atoms: _74  and  _75
REMARK   31  A    between atoms: _74  and  _77
REMARK   32  A    between atoms: _77  and  _78
REMARK   33  A    between atoms: _81  and  _83
REMARK   34  A    between atoms: _83  and  _84
REMARK   35  A    between atoms: _83  and  _86
REMARK   36  A    between atoms: _86  and  _87
REMARK   37  A    between atoms: _87  and  _88
REMARK   38  A    between atoms: _91  and  _93
REMARK   39  A    between atoms: _93  and  _94
REMARK   40  A    between atoms: _93  and  _96
REMARK   41  A    between atoms: _96  and  _97
REMARK   42  A    between atoms: _103  and  _104
REMARK   43  A    between atoms: _109  and  _111
REMARK   44  A    between atoms: _111  and  _112
REMARK   45  A    between atoms: _111  and  _114
REMARK   46  A    between atoms: _114  and  _115
REMARK   47  A    between atoms: _118  and  _120
REMARK   48  A    between atoms: _120  and  _121
REMARK   49  A    between atoms: _120  and  _123
REMARK   50  A    between atoms: _123  and  _124
REMARK   51  A    between atoms: _124  and  _125
REMARK   52  A    between atoms: _130  and  _132
REMARK   53  A    between atoms: _132  and  _133
REMARK   54  A    between atoms: _135  and  _137
REMARK   55  A    between atoms: _137  and  _138
REMARK   56  A    between atoms: _137  and  _140
REMARK   57  A    between atoms: _140  and  _141
REMARK   58  A    between atoms: _144  and  _146
REMARK   59  A    between atoms: _146  and  _147
REMARK   60  A    between atoms: _146  and  _149
REMARK   61  A    between atoms: _151  and  _153
REMARK   62  A    between atoms: _153  and  _154
REMARK   63  A    between atoms: _156  and  _158
REMARK   64  A    between atoms: _158  and  _159
REMARK   65  A    between atoms: _158  and  _161
REMARK   66  A    between atoms: _161  and  _162
REMARK   67  A    between atoms: _167  and  _168
REMARK   68  A    between atoms: _170  and  _172
REMARK   69  A    between atoms: _172  and  _173
REMARK   70  A    between atoms: _172  and  _175
REMARK   71  A    between atoms: _175  and  _176
REMARK   72  A    between atoms: _181  and  _183
REMARK   73  A    between atoms: _183  and  _184
REMARK   74  A    between atoms: _183  and  _186
REMARK   75  A    between atoms: _186  and  _187
REMARK   76  A    between atoms: _190  and  _192
REMARK   77  A    between atoms: _192  and  _193
REMARK   78  A    between atoms: _192  and  _195
REMARK   79  A    between atoms: _199  and  _200
REMARK   80  A    between atoms: _205  and  _207
REMARK   81  A    between atoms: _207  and  _208
REMARK   82  A    between atoms: _210  and  _212
REMARK   83  A    between atoms: _212  and  _213
REMARK   84  A    between atoms: _212  and  _215
REMARK   85  A    between atoms: _213  and  _214
REMARK   86  A    between atoms: _213  and  _219
REMARK   87  A    between atoms: _214  and  CA_260
REMARK   88  A    between atoms: _215  and  _216
REMARK   89  A    between atoms: _219  and  _221
REMARK   90  A    between atoms: _221  and  _222
REMARK   91  A    between atoms: _221  and  _224
REMARK   92  A    between atoms: _224  and  _225
REMARK   93  A    between atoms: _230  and  _231
REMARK   94  A    between atoms: _233  and  _235
REMARK   95  A    between atoms: _235  and  _236
REMARK   96  A    between atoms: _238  and  _240
REMARK   97  A    between atoms: _240  and  _241
REMARK   98  A    between atoms: _240  and  _243
REMARK   99  A    between atoms: _243  and  _244
REMARK  100  A    between atoms: _249  and  _251
REMARK  101  A    between atoms: _251  and  _252
REMARK  102  A    between atoms: _251  and  _254
REMARK  103  A    between atoms: _254  and  _255
REMARK                            x       y       z     vdW  Elec       q    Type
REMARK                         _______ _______ _______ _____ _____    ______ ____
ROOT
ATOM      1  CA  ASP A   4      19.233  17.736  27.123  0.00  0.00    +0.160 C 
ENDROOT
BRANCH   1   2
ATOM      2  C   ASP A   4      20.549  17.559  27.869  0.00  0.00    +0.241 C 
ATOM      3  N   GLN A   5      20.738  16.390  28.472  0.00  0.00    -0.297 N 
ATOM      4  H   GLN A   5      20.029  15.638  28.360  0.00  0.00    +0.150 HD
ATOM      5  O   ASP A   4      21.384  18.466  27.893  0.00  0.00    -0.273 OA
BRANCH   3   6
ATOM      6  CA  GLN A   5      21.922  16.141  29.289  0.00  0.00    +0.149 C 
BRANCH   6   7
ATOM      7  C   GLN A   5      22.926  15.259  28.561  0.00  0.00    +0.241 C 
ATOM      8  O   GLN A   5      23.734  14.573  29.191  0.00  0.00    -0.273 OA
ATOM      9  N   GLY A   6      22.880  15.285  27.235  0.00  0.00    -0.295 N 
ATOM     10  H   GLY A   6      22.202  15.918  26.765  0.00  0.00    +0.150 HD
BRANCH   9  11
ATOM     11  CA  GLY A   6      23.751  14.454  26.422  0.00  0.00    +0.176 C 
BRANCH  11  12
ATOM     12  C   GLY A   6      22.994  13.372  25.669  0.00  0.00    +0.243 C 
ATOM     13  O   GLY A   6      23.457  12.240  25.553  0.00  0.00    -0.273 OA
ATOM     14  N   LEU A   7      21.823  13.724  25.143  0.00  0.00    -0.298 N 
ATOM     15  H   LEU A   7      21.503  14.709  25.235  0.00  0.00    +0.150 HD
BRANCH  14  16
ATOM     16  CA  LEU A   7      20.974  12.764  24.440  0.00  0.00    +0.137 C 
BRANCH  16  17
ATOM     17  C   LEU A   7      21.623  12.212  23.176  0.00  0.00    +0.227 C 
ATOM     18  O   LEU A   7      22.431  12.888  22.540  0.00  0.00    -0.286 OA
ENDBRANCH  16  17
BRANCH  16  19
ATOM     19  CB  LEU A   7      19.659  13.432  24.069  0.00  0.00    +0.028 C 
BRANCH  19  20
ATOM     20  CG  LEU A   7      18.862  13.876  25.297  0.00  0.00    +0.002 C 
ATOM     21  CD2 LEU A   7      18.305  12.655  26.037  0.00  0.00    +0.000 C 
ATOM     22  CD1 LEU A   7      17.754  14.832  24.890  0.00  0.00    +0.000 C 
ENDBRANCH  19  20
ENDBRANCH  16  19
ENDBRANCH  14  16
ENDBRANCH  11  12
ENDBRANCH   9  11
ENDBRANCH   6   7
BRANCH   6  23
ATOM     23  CB  GLN A   5      21.530  15.497  30.624  0.00  0.00    +0.039 C 
BRANCH  23  24
ATOM     24  CG  GLN A   5      20.542  16.312  31.437  0.00  0.00    +0.087 C 
BRANCH  24  25
ATOM     25  CD  GLN A   5      20.339  15.757  32.830  0.00  0.00    +0.219 C 
ATOM     26  NE2 GLN A   5      20.747  16.525  33.832  0.00  0.00    -0.329 N 
ATOM     27 HE21 GLN A   5      20.642  16.198  34.814  0.00  0.00    +0.145 HD
ATOM     28 HE22 GLN A   5      21.171  17.454  33.636  0.00  0.00    +0.145 HD
ATOM     29  OE1 GLN A   5      19.830  14.649  33.007  0.00  0.00    -0.275 OA
ENDBRANCH  24  25
ENDBRANCH  23  24
ENDBRANCH   6  23
ENDBRANCH   3   6
ENDBRANCH   1   2
BRANCH   1  32
ATOM     30  C   PRO A   3      17.583  18.272  28.866  0.00  0.00    +0.241 C 
ATOM     31  O   PRO A   3      17.388  17.094  29.171  0.00  0.00    -0.273 OA
ATOM     32  N   ASP A   4      18.393  18.659  27.883  0.00  0.00    -0.297 N 
ATOM     33  H   ASP A   4      18.430  19.670  27.644  0.00  0.00    +0.150 HD
BRANCH  30  39
ATOM     34  C   HIS A   2      14.604  18.661  29.433  0.00  0.00    +0.244 C 
ATOM     35  N   PRO A   3      15.637  18.917  30.247  0.00  0.00    -0.272 N 
ATOM     36  CD  PRO A   3      15.739  18.799  31.711  0.00  0.00    +0.094 C 
ATOM     37  CG  PRO A   3      17.220  18.938  31.954  0.00  0.00    +0.024 C 
ATOM     38  CB  PRO A   3      17.730  19.786  30.848  0.00  0.00    +0.031 C 
ATOM     39  CA  PRO A   3      16.883  19.384  29.637  0.00  0.00    +0.152 C 
ATOM     40  O   HIS A   2      14.670  18.821  28.219  0.00  0.00    -0.273 OA
BRANCH  34  41
ATOM     41  CA  HIS A   2      13.326  18.141  30.079  0.00  0.00    +0.155 C 
BRANCH  41  44
ATOM     42  C   GLU A   1      11.565  19.811  30.166  0.00  0.00    +0.238 C 
ATOM     43  O   GLU A   1      12.073  20.359  31.144  0.00  0.00    -0.274 OA
ATOM     44  N   HIS A   2      12.135  18.792  29.532  0.00  0.00    -0.297 N 
ATOM     45  H   HIS A   2      11.730  18.453  28.636  0.00  0.00    +0.150 HD
BRANCH  42  46
ATOM     46  CA  GLU A   1      10.226  20.295  29.633  0.00  0.00    +0.145 C 
BRANCH  46  47
ATOM     47  N   GLU A   1       9.738  19.458  28.536  0.00  0.00    -0.238 NA
ATOM     48  H   GLU A   1       9.271  18.554  28.751  0.00  0.00    +0.142 HD
ENDBRANCH  46  47
BRANCH  46  49
ATOM     49  CB  GLU A   1       9.227  20.326  30.793  0.00  0.00    +0.038 C 
BRANCH  49  50
ATOM     50  CG  GLU A   1       7.902  21.022  30.501  0.00  0.00    +0.116 C 
BRANCH  50  51
ATOM     51  CD  GLU A   1       6.954  20.985  31.696  0.00  0.00    +0.365 C 
ATOM     52  OE2 GLU A   1       7.349  20.445  32.753  0.00  0.00    -0.246 OA
ATOM     53  OE1 GLU A   1       5.816  21.491  31.582  0.00  0.00    -0.246 OA
ENDBRANCH  50  51
ENDBRANCH  49  50
ENDBRANCH  46  49
ENDBRANCH  42  46
ENDBRANCH  41  44
BRANCH  41  54
ATOM     54  CB  HIS A   2      13.238  16.627  29.887  0.00  0.00    +0.076 C 
BRANCH  54  55
ATOM     55  CG  HIS A   2      14.165  15.857  30.775  0.00  0.00    +0.082 A 
ATOM     56  ND1 HIS A   2      13.950  15.711  32.120  0.00  0.00    -0.227 NA
ATOM     57  CE1 HIS A   2      14.925  14.991  32.657  0.00  0.00    +0.199 A 
ATOM     58  NE2 HIS A   2      15.768  14.662  31.680  0.00  0.00    -0.221 NA
ATOM     59  CD2 HIS A   2      15.317  15.186  30.501  0.00  0.00    +0.115 A 
ENDBRANCH  54  55
ENDBRANCH  41  54
ENDBRANCH  34  41
ENDBRANCH  30  39
ENDBRANCH   1  32
BRANCH   1  60
ATOM     60  CB  ASP A   4      19.493  18.312  25.726  0.00  0.00    +0.143 C 
BRANCH  60  61
ATOM     61  CG  ASP A   4      20.339  17.398  24.842  0.00  0.00    +0.367 C 
ATOM     62  OD2 ASP A   4      21.080  16.526  25.355  0.00  0.00    -0.246 OA
ATOM     63  OD1 ASP A   4      20.266  17.570  23.608  0.00  0.00    -0.246 OA
ENDBRANCH  60  61
ENDBRANCH   1  60
TORSDOF 25
REMARK  Name = ../refined-set-2016/4ljh/4ljh_pocket.pdb
REMARK  103 active torsions:
REMARK  status: ('A' for Active; 'I' for Inactive)
REMARK    1  A    between atoms: _1  and  _3
REMARK    2  A    between atoms: _3  and  _4
REMARK    3  A    between atoms: _3  and  _6
REMARK    4  A    between atoms: _6  and  _7
REMARK    5  A    between atoms: _9  and  _11
REMARK    6  A    between atoms: _11  and  _12
REMARK    7  A    between atoms: _11  and  _14
REMARK    8  A    between atoms: _12  and  _13
REMARK    9  A    between atoms: _12  and  _23
REMARK   10  A    between atoms: _13  and  CA_260
REMARK   11  A    between atoms: _14  and  _15
REMARK   12  A    between atoms: _20  and  _21
REMARK   13  A    between atoms: _23  and  _25
REMARK   14  A    between atoms: _25  and  _26
REMARK   15  A    between atoms: _29  and  _30
REMARK   16  A    between atoms: _35  and  _37
REMARK   17  A    between atoms: _37  and  _38
REMARK   18  A    between atoms: _37  and  _40
REMARK   19  A    between atoms: _40  and  _41
REMARK   20  A    between atoms: _44  and  _46
REMARK   21  A    between atoms: _46  and  _47
REMARK   22  A    between atoms: _46  and  _49
REMARK   23  A    between atoms: _49  and  _50
REMARK   24  A    between atoms: _50  and  _51
REMARK   25  A    between atoms: _56  and  _58
REMARK   26  A    between atoms: _58  and  _59
REMARK   27  A    between atoms: _58  and  _61
REMARK   28  A    between atoms: _61  and  _62
REMARK   29  A    between atoms: _72  and  _74
REMARK   30  A    between atoms: _74  and  _75
REMARK   31  A    between atoms: _74  and  _77
REMARK   32  A    between atoms: _77  and  _78
REMARK   33  A    between atoms: _81  and  _83
REMARK   34  A    between atoms: _83  and  _84
REMARK   35  A    between atoms: _83  and  _86
REMARK   36  A    between atoms: _86  and  _87
REMARK   37  A    between atoms: _87  and  _88
REMARK   38  A    between atoms: _91  and  _93
REMARK   39  A    between atoms: _93  and  _94
REMARK   40  A    between atoms: _93  and  _96
REMARK   41  A    between atoms: _96  and  _97
REMARK   42  A    between atoms: _103  and  _104
REMARK   43  A    between atoms: _109  and  _111
REMARK   44  A    between atoms: _111  and  _112
REMARK   45  A    between atoms: _111  and  _114
REMARK   46  A    between atoms: _114  and  _115
REMARK   47  A    between atoms: _118  and  _120
REMARK   48  A    between atoms: _120  and  _121
REMARK   49  A    between atoms: _120  and  _123
REMARK   50  A    between atoms: _123  and  _124
REMARK   51  A    between atoms: _124  and  _125
REMARK   52  A    between atoms: _130  and  _132
REMARK   53  A    between atoms: _132  and  _133
REMARK   54  A    between atoms: _135  and  _137
REMARK   55  A    between atoms: _137  and  _138
REMARK   56  A    between atoms: _137  and  _140
REMARK   57  A    between atoms: _140  and  _141
REMARK   58  A    between atoms: _144  and  _146
REMARK   59  A    between atoms: _146  and  _147
REMARK   60  A    between atoms: _146  and  _149
REMARK   61  A    between atoms: _151  and  _153
REMARK   62  A    between atoms: _153  and  _154
REMARK   63  A    between atoms: _156  and  _158
REMARK   64  A    between atoms: _158  and  _159
REMARK   65  A    between atoms: _158  and  _161
REMARK   66  A    between atoms: _161  and  _162
REMARK   67  A    between atoms: _167  and  _168
REMARK   68  A    between atoms: _170  and  _172
REMARK   69  A    between atoms: _172  and  _173
REMARK   70  A    between atoms: _172  and  _175
REMARK   71  A    between atoms: _175  and  _176
REMARK   72  A    between atoms: _181  and  _183
REMARK   73  A    between atoms: _183  and  _184
REMARK   74  A    between atoms: _183  and  _186
REMARK   75  A    between atoms: _186  and  _187
REMARK   76  A    between atoms: _190  and  _192
REMARK   77  A    between atoms: _192  and  _193
REMARK   78  A    between atoms: _192  and  _195
REMARK   79  A    between atoms: _199  and  _200
REMARK   80  A    between atoms: _205  and  _207
REMARK   81  A    between atoms: _207  and  _208
REMARK   82  A    between atoms: _210  and  _212
REMARK   83  A    between atoms: _212  and  _213
REMARK   84  A    between atoms: _212  and  _215
REMARK   85  A    between atoms: _213  and  _214
REMARK   86  A    between atoms: _213  and  _219
REMARK   87  A    between atoms: _214  and  CA_260
REMARK   88  A    between atoms: _215  and  _216
REMARK   89  A    between atoms: _219  and  _221
REMARK   90  A    between atoms: _221  and  _222
REMARK   91  A    between atoms: _221  and  _224
REMARK   92  A    between atoms: _224  and  _225
REMARK   93  A    between atoms: _230  and  _231
REMARK   94  A    between atoms: _233  and  _235
REMARK   95  A    between atoms: _235  and  _236
REMARK   96  A    between atoms: _238  and  _240
REMARK   97  A    between atoms: _240  and  _241
REMARK   98  A    between atoms: _240  and  _243
REMARK   99  A    between atoms: _243  and  _244
REMARK  100  A    between atoms: _249  and  _251
REMARK  101  A    between atoms: _251  and  _252
REMARK  102  A    between atoms: _251  and  _254
REMARK  103  A    between atoms: _254  and  _255
REMARK                            x       y       z     vdW  Elec       q    Type
REMARK                         _______ _______ _______ _____ _____    ______ ____
ROOT
ATOM      1  C   CYS A   1      13.111  12.441  26.051  0.00  0.00    +0.239 C 
ATOM      2  O   CYS A   1      12.053  12.989  26.359  0.00  0.00    -0.274 OA
ATOM      3  N   GLY A   2      13.185  11.152  25.734  0.00  0.00    -0.297 N 
ATOM      4  H   GLY A   2      14.109  10.739  25.493  0.00  0.00    +0.150 HD
ENDROOT
BRANCH   1   5
ATOM      5  CA  CYS A   1      14.410  13.239  26.008  0.00  0.00    +0.156 C 
BRANCH   5   6
ATOM      6  N   CYS A   1      14.191  14.453  25.246  0.00  0.00    -0.237 NA
ATOM      7  H   CYS A   1      14.396  15.375  25.681  0.00  0.00    +0.142 HD
ENDBRANCH   5   6
BRANCH   5   8
ATOM      8  CB  CYS A   1      14.874  13.587  27.424  0.00  0.00    +0.095 C 
ATOM      9  SG  CYS A   1      15.275  12.158  28.440  0.00  0.00    -0.080 S 
ENDBRANCH   5   8
ENDBRANCH   1   5
BRANCH   3  10
ATOM     10  CA  GLY A   2      11.999  10.305  25.717  0.00  0.00    +0.163 C 
BRANCH  10  11
ATOM     11  C   GLY A   2      11.282  10.225  24.373  0.00  0.00    +0.229 C 
ATOM     12  O   GLY A   2      10.260   9.545  24.251  0.00  0.00    -0.286 OA
ENDBRANCH  10  11
ENDBRANCH   3  10
TORSDOF 5
REMARK  Name = ../refined-set-2016/4ljh/4ljh_pocket.pdb
REMARK  103 active torsions:
REMARK  status: ('A' for Active; 'I' for Inactive)
REMARK    1  A    between atoms: _1  and  _3
REMARK    2  A    between atoms: _3  and  _4
REMARK    3  A    between atoms: _3  and  _6
REMARK    4  A    between atoms: _6  and  _7
REMARK    5  A    between atoms: _9  and  _11
REMARK    6  A    between atoms: _11  and  _12
REMARK    7  A    between atoms: _11  and  _14
REMARK    8  A    between atoms: _12  and  _13
REMARK    9  A    between atoms: _12  and  _23
REMARK   10  A    between atoms: _13  and  CA_260
REMARK   11  A    between atoms: _14  and  _15
REMARK   12  A    between atoms: _20  and  _21
REMARK   13  A    between atoms: _23  and  _25
REMARK   14  A    between atoms: _25  and  _26
REMARK   15  A    between atoms: _29  and  _30
REMARK   16  A    between atoms: _35  and  _37
REMARK   17  A    between atoms: _37  and  _38
REMARK   18  A    between atoms: _37  and  _40
REMARK   19  A    between atoms: _40  and  _41
REMARK   20  A    between atoms: _44  and  _46
REMARK   21  A    between atoms: _46  and  _47
REMARK   22  A    between atoms: _46  and  _49
REMARK   23  A    between atoms: _49  and  _50
REMARK   24  A    between atoms: _50  and  _51
REMARK   25  A    between atoms: _56  and  _58
REMARK   26  A    between atoms: _58  and  _59
REMARK   27  A    between atoms: _58  and  _61
REMARK   28  A    between atoms: _61  and  _62
REMARK   29  A    between atoms: _72  and  _74
REMARK   30  A    between atoms: _74  and  _75
REMARK   31  A    between atoms: _74  and  _77
REMARK   32  A    between atoms: _77  and  _78
REMARK   33  A    between atoms: _81  and  _83
REMARK   34  A    between atoms: _83  and  _84
REMARK   35  A    between atoms: _83  and  _86
REMARK   36  A    between atoms: _86  and  _87
REMARK   37  A    between atoms: _87  and  _88
REMARK   38  A    between atoms: _91  and  _93
REMARK   39  A    between atoms: _93  and  _94
REMARK   40  A    between atoms: _93  and  _96
REMARK   41  A    between atoms: _96  and  _97
REMARK   42  A    between atoms: _103  and  _104
REMARK   43  A    between atoms: _109  and  _111
REMARK   44  A    between atoms: _111  and  _112
REMARK   45  A    between atoms: _111  and  _114
REMARK   46  A    between atoms: _114  and  _115
REMARK   47  A    between atoms: _118  and  _120
REMARK   48  A    between atoms: _120  and  _121
REMARK   49  A    between atoms: _120  and  _123
REMARK   50  A    between atoms: _123  and  _124
REMARK   51  A    between atoms: _124  and  _125
REMARK   52  A    between atoms: _130  and  _132
REMARK   53  A    between atoms: _132  and  _133
REMARK   54  A    between atoms: _135  and  _137
REMARK   55  A    between atoms: _137  and  _138
REMARK   56  A    between atoms: _137  and  _140
REMARK   57  A    between atoms: _140  and  _141
REMARK   58  A    between atoms: _144  and  _146
REMARK   59  A    between atoms: _146  and  _147
REMARK   60  A    between atoms: _146  and  _149
REMARK   61  A    between atoms: _151  and  _153
REMARK   62  A    between atoms: _153  and  _154
REMARK   63  A    between atoms: _156  and  _158
REMARK   64  A    between atoms: _158  and  _159
REMARK   65  A    between atoms: _158  and  _161
REMARK   66  A    between atoms: _161  and  _162
REMARK   67  A    between atoms: _167  and  _168
REMARK   68  A    between atoms: _170  and  _172
REMARK   69  A    between atoms: _172  and  _173
REMARK   70  A    between atoms: _172  and  _175
REMARK   71  A    between atoms: _175  and  _176
REMARK   72  A    between atoms: _181  and  _183
REMARK   73  A    between atoms: _183  and  _184
REMARK   74  A    between atoms: _183  and  _186
REMARK   75  A    between atoms: _186  and  _187
REMARK   76  A    between atoms: _190  and  _192
REMARK   77  A    between atoms: _192  and  _193
REMARK   78  A    between atoms: _192  and  _195
REMARK   79  A    between atoms: _199  and  _200
REMARK   80  A    between atoms: _205  and  _207
REMARK   81  A    between atoms: _207  and  _208
REMARK   82  A    between atoms: _210  and  _212
REMARK   83  A    between atoms: _212  and  _213
REMARK   84  A    between atoms: _212  and  _215
REMARK   85  A    between atoms: _213  and  _214
REMARK   86  A    between atoms: _213  and  _219
REMARK   87  A    between atoms: _214  and  CA_260
REMARK   88  A    between atoms: _215  and  _216
REMARK   89  A    between atoms: _219  and  _221
REMARK   90  A    between atoms: _221  and  _222
REMARK   91  A    between atoms: _221  and  _224
REMARK   92  A    between atoms: _224  and  _225
REMARK   93  A    between atoms: _230  and  _231
REMARK   94  A    between atoms: _233  and  _235
REMARK   95  A    between atoms: _235  and  _236
REMARK   96  A    between atoms: _238  and  _240
REMARK   97  A    between atoms: _240  and  _241
REMARK   98  A    between atoms: _240  and  _243
REMARK   99  A    between atoms: _243  and  _244
REMARK  100  A    between atoms: _249  and  _251
REMARK  101  A    between atoms: _251  and  _252
REMARK  102  A    between atoms: _251  and  _254
REMARK  103  A    between atoms: _254  and  _255
REMARK                            x       y       z     vdW  Elec       q    Type
REMARK                         _______ _______ _______ _____ _____    ______ ____
ROOT
ATOM      1  O   HOH     1      18.494  14.682  28.672  0.00  0.00    +0.000 OA
ENDROOT
TORSDOF 0
REMARK  Name = ../refined-set-2016/4ljh/4ljh_pocket.pdb
REMARK  103 active torsions:
REMARK  status: ('A' for Active; 'I' for Inactive)
REMARK    1  A    between atoms: _1  and  _3
REMARK    2  A    between atoms: _3  and  _4
REMARK    3  A    between atoms: _3  and  _6
REMARK    4  A    between atoms: _6  and  _7
REMARK    5  A    between atoms: _9  and  _11
REMARK    6  A    between atoms: _11  and  _12
REMARK    7  A    between atoms: _11  and  _14
REMARK    8  A    between atoms: _12  and  _13
REMARK    9  A    between atoms: _12  and  _23
REMARK   10  A    between atoms: _13  and  CA_260
REMARK   11  A    between atoms: _14  and  _15
REMARK   12  A    between atoms: _20  and  _21
REMARK   13  A    between atoms: _23  and  _25
REMARK   14  A    between atoms: _25  and  _26
REMARK   15  A    between atoms: _29  and  _30
REMARK   16  A    between atoms: _35  and  _37
REMARK   17  A    between atoms: _37  and  _38
REMARK   18  A    between atoms: _37  and  _40
REMARK   19  A    between atoms: _40  and  _41
REMARK   20  A    between atoms: _44  and  _46
REMARK   21  A    between atoms: _46  and  _47
REMARK   22  A    between atoms: _46  and  _49
REMARK   23  A    between atoms: _49  and  _50
REMARK   24  A    between atoms: _50  and  _51
REMARK   25  A    between atoms: _56  and  _58
REMARK   26  A    between atoms: _58  and  _59
REMARK   27  A    between atoms: _58  and  _61
REMARK   28  A    between atoms: _61  and  _62
REMARK   29  A    between atoms: _72  and  _74
REMARK   30  A    between atoms: _74  and  _75
REMARK   31  A    between atoms: _74  and  _77
REMARK   32  A    between atoms: _77  and  _78
REMARK   33  A    between atoms: _81  and  _83
REMARK   34  A    between atoms: _83  and  _84
REMARK   35  A    between atoms: _83  and  _86
REMARK   36  A    between atoms: _86  and  _87
REMARK   37  A    between atoms: _87  and  _88
REMARK   38  A    between atoms: _91  and  _93
REMARK   39  A    between atoms: _93  and  _94
REMARK   40  A    between atoms: _93  and  _96
REMARK   41  A    between atoms: _96  and  _97
REMARK   42  A    between atoms: _103  and  _104
REMARK   43  A    between atoms: _109  and  _111
REMARK   44  A    between atoms: _111  and  _112
REMARK   45  A    between atoms: _111  and  _114
REMARK   46  A    between atoms: _114  and  _115
REMARK   47  A    between atoms: _118  and  _120
REMARK   48  A    between atoms: _120  and  _121
REMARK   49  A    between atoms: _120  and  _123
REMARK   50  A    between atoms: _123  and  _124
REMARK   51  A    between atoms: _124  and  _125
REMARK   52  A    between atoms: _130  and  _132
REMARK   53  A    between atoms: _132  and  _133
REMARK   54  A    between atoms: _135  and  _137
REMARK   55  A    between atoms: _137  and  _138
REMARK   56  A    between atoms: _137  and  _140
REMARK   57  A    between atoms: _140  and  _141
REMARK   58  A    between atoms: _144  and  _146
REMARK   59  A    between atoms: _146  and  _147
REMARK   60  A    between atoms: _146  and  _149
REMARK   61  A    between atoms: _151  and  _153
REMARK   62  A    between atoms: _153  and  _154
REMARK   63  A    between atoms: _156  and  _158
REMARK   64  A    between atoms: _158  and  _159
REMARK   65  A    between atoms: _158  and  _161
REMARK   66  A    between atoms: _161  and  _162
REMARK   67  A    between atoms: _167  and  _168
REMARK   68  A    between atoms: _170  and  _172
REMARK   69  A    between atoms: _172  and  _173
REMARK   70  A    between atoms: _172  and  _175
REMARK   71  A    between atoms: _175  and  _176
REMARK   72  A    between atoms: _181  and  _183
REMARK   73  A    between atoms: _183  and  _184
REMARK   74  A    between atoms: _183  and  _186
REMARK   75  A    between atoms: _186  and  _187
REMARK   76  A    between atoms: _190  and  _192
REMARK   77  A    between atoms: _192  and  _193
REMARK   78  A    between atoms: _192  and  _195
REMARK   79  A    between atoms: _199  and  _200
REMARK   80  A    between atoms: _205  and  _207
REMARK   81  A    between atoms: _207  and  _208
REMARK   82  A    between atoms: _210  and  _212
REMARK   83  A    between atoms: _212  and  _213
REMARK   84  A    between atoms: _212  and  _215
REMARK   85  A    between atoms: _213  and  _214
REMARK   86  A    between atoms: _213  and  _219
REMARK   87  A    between atoms: _214  and  CA_260
REMARK   88  A    between atoms: _215  and  _216
REMARK   89  A    between atoms: _219  and  _221
REMARK   90  A    between atoms: _221  and  _222
REMARK   91  A    between atoms: _221  and  _224
REMARK   92  A    between atoms: _224  and  _225
REMARK   93  A    between atoms: _230  and  _231
REMARK   94  A    between atoms: _233  and  _235
REMARK   95  A    between atoms: _235  and  _236
REMARK   96  A    between atoms: _238  and  _240
REMARK   97  A    between atoms: _240  and  _241
REMARK   98  A    between atoms: _240  and  _243
REMARK   99  A    between atoms: _243  and  _244
REMARK  100  A    between atoms: _249  and  _251
REMARK  101  A    between atoms: _251  and  _252
REMARK  102  A    between atoms: _251  and  _254
REMARK  103  A    between atoms: _254  and  _255
REMARK                            x       y       z     vdW  Elec       q    Type
REMARK                         _______ _______ _______ _____ _____    ______ ____
ROOT
ATOM      1  O   HOH     1      21.898   2.209  32.626  0.00  0.00    +0.000 OA
ENDROOT
TORSDOF 0
REMARK  Name = ../refined-set-2016/4ljh/4ljh_pocket.pdb
REMARK  103 active torsions:
REMARK  status: ('A' for Active; 'I' for Inactive)
REMARK    1  A    between atoms: _1  and  _3
REMARK    2  A    between atoms: _3  and  _4
REMARK    3  A    between atoms: _3  and  _6
REMARK    4  A    between atoms: _6  and  _7
REMARK    5  A    between atoms: _9  and  _11
REMARK    6  A    between atoms: _11  and  _12
REMARK    7  A    between atoms: _11  and  _14
REMARK    8  A    between atoms: _12  and  _13
REMARK    9  A    between atoms: _12  and  _23
REMARK   10  A    between atoms: _13  and  CA_260
REMARK   11  A    between atoms: _14  and  _15
REMARK   12  A    between atoms: _20  and  _21
REMARK   13  A    between atoms: _23  and  _25
REMARK   14  A    between atoms: _25  and  _26
REMARK   15  A    between atoms: _29  and  _30
REMARK   16  A    between atoms: _35  and  _37
REMARK   17  A    between atoms: _37  and  _38
REMARK   18  A    between atoms: _37  and  _40
REMARK   19  A    between atoms: _40  and  _41
REMARK   20  A    between atoms: _44  and  _46
REMARK   21  A    between atoms: _46  and  _47
REMARK   22  A    between atoms: _46  and  _49
REMARK   23  A    between atoms: _49  and  _50
REMARK   24  A    between atoms: _50  and  _51
REMARK   25  A    between atoms: _56  and  _58
REMARK   26  A    between atoms: _58  and  _59
REMARK   27  A    between atoms: _58  and  _61
REMARK   28  A    between atoms: _61  and  _62
REMARK   29  A    between atoms: _72  and  _74
REMARK   30  A    between atoms: _74  and  _75
REMARK   31  A    between atoms: _74  and  _77
REMARK   32  A    between atoms: _77  and  _78
REMARK   33  A    between atoms: _81  and  _83
REMARK   34  A    between atoms: _83  and  _84
REMARK   35  A    between atoms: _83  and  _86
REMARK   36  A    between atoms: _86  and  _87
REMARK   37  A    between atoms: _87  and  _88
REMARK   38  A    between atoms: _91  and  _93
REMARK   39  A    between atoms: _93  and  _94
REMARK   40  A    between atoms: _93  and  _96
REMARK   41  A    between atoms: _96  and  _97
REMARK   42  A    between atoms: _103  and  _104
REMARK   43  A    between atoms: _109  and  _111
REMARK   44  A    between atoms: _111  and  _112
REMARK   45  A    between atoms: _111  and  _114
REMARK   46  A    between atoms: _114  and  _115
REMARK   47  A    between atoms: _118  and  _120
REMARK   48  A    between atoms: _120  and  _121
REMARK   49  A    between atoms: _120  and  _123
REMARK   50  A    between atoms: _123  and  _124
REMARK   51  A    between atoms: _124  and  _125
REMARK   52  A    between atoms: _130  and  _132
REMARK   53  A    between atoms: _132  and  _133
REMARK   54  A    between atoms: _135  and  _137
REMARK   55  A    between atoms: _137  and  _138
REMARK   56  A    between atoms: _137  and  _140
REMARK   57  A    between atoms: _140  and  _141
REMARK   58  A    between atoms: _144  and  _146
REMARK   59  A    between atoms: _146  and  _147
REMARK   60  A    between atoms: _146  and  _149
REMARK   61  A    between atoms: _151  and  _153
REMARK   62  A    between atoms: _153  and  _154
REMARK   63  A    between atoms: _156  and  _158
REMARK   64  A    between atoms: _158  and  _159
REMARK   65  A    between atoms: _158  and  _161
REMARK   66  A    between atoms: _161  and  _162
REMARK   67  A    between atoms: _167  and  _168
REMARK   68  A    between atoms: _170  and  _172
REMARK   69  A    between atoms: _172  and  _173
REMARK   70  A    between atoms: _172  and  _175
REMARK   71  A    between atoms: _175  and  _176
REMARK   72  A    between atoms: _181  and  _183
REMARK   73  A    between atoms: _183  and  _184
REMARK   74  A    between atoms: _183  and  _186
REMARK   75  A    between atoms: _186  and  _187
REMARK   76  A    between atoms: _190  and  _192
REMARK   77  A    between atoms: _192  and  _193
REMARK   78  A    between atoms: _192  and  _195
REMARK   79  A    between atoms: _199  and  _200
REMARK   80  A    between atoms: _205  and  _207
REMARK   81  A    between atoms: _207  and  _208
REMARK   82  A    between atoms: _210  and  _212
REMARK   83  A    between atoms: _212  and  _213
REMARK   84  A    between atoms: _212  and  _215
REMARK   85  A    between atoms: _213  and  _214
REMARK   86  A    between atoms: _213  and  _219
REMARK   87  A    between atoms: _214  and  CA_260
REMARK   88  A    between atoms: _215  and  _216
REMARK   89  A    between atoms: _219  and  _221
REMARK   90  A    between atoms: _221  and  _222
REMARK   91  A    between atoms: _221  and  _224
REMARK   92  A    between atoms: _224  and  _225
REMARK   93  A    between atoms: _230  and  _231
REMARK   94  A    between atoms: _233  and  _235
REMARK   95  A    between atoms: _235  and  _236
REMARK   96  A    between atoms: _238  and  _240
REMARK   97  A    between atoms: _240  and  _241
REMARK   98  A    between atoms: _240  and  _243
REMARK   99  A    between atoms: _243  and  _244
REMARK  100  A    between atoms: _249  and  _251
REMARK  101  A    between atoms: _251  and  _252
REMARK  102  A    between atoms: _251  and  _254
REMARK  103  A    between atoms: _254  and  _255
REMARK                            x       y       z     vdW  Elec       q    Type
REMARK                         _______ _______ _______ _____ _____    ______ ____
ROOT
ATOM      1  O   HOH     1      13.589   5.057  37.549  0.00  0.00    +0.000 OA
ENDROOT
TORSDOF 0
REMARK  Name = ../refined-set-2016/4ljh/4ljh_pocket.pdb
REMARK  103 active torsions:
REMARK  status: ('A' for Active; 'I' for Inactive)
REMARK    1  A    between atoms: _1  and  _3
REMARK    2  A    between atoms: _3  and  _4
REMARK    3  A    between atoms: _3  and  _6
REMARK    4  A    between atoms: _6  and  _7
REMARK    5  A    between atoms: _9  and  _11
REMARK    6  A    between atoms: _11  and  _12
REMARK    7  A    between atoms: _11  and  _14
REMARK    8  A    between atoms: _12  and  _13
REMARK    9  A    between atoms: _12  and  _23
REMARK   10  A    between atoms: _13  and  CA_260
REMARK   11  A    between atoms: _14  and  _15
REMARK   12  A    between atoms: _20  and  _21
REMARK   13  A    between atoms: _23  and  _25
REMARK   14  A    between atoms: _25  and  _26
REMARK   15  A    between atoms: _29  and  _30
REMARK   16  A    between atoms: _35  and  _37
REMARK   17  A    between atoms: _37  and  _38
REMARK   18  A    between atoms: _37  and  _40
REMARK   19  A    between atoms: _40  and  _41
REMARK   20  A    between atoms: _44  and  _46
REMARK   21  A    between atoms: _46  and  _47
REMARK   22  A    between atoms: _46  and  _49
REMARK   23  A    between atoms: _49  and  _50
REMARK   24  A    between atoms: _50  and  _51
REMARK   25  A    between atoms: _56  and  _58
REMARK   26  A    between atoms: _58  and  _59
REMARK   27  A    between atoms: _58  and  _61
REMARK   28  A    between atoms: _61  and  _62
REMARK   29  A    between atoms: _72  and  _74
REMARK   30  A    between atoms: _74  and  _75
REMARK   31  A    between atoms: _74  and  _77
REMARK   32  A    between atoms: _77  and  _78
REMARK   33  A    between atoms: _81  and  _83
REMARK   34  A    between atoms: _83  and  _84
REMARK   35  A    between atoms: _83  and  _86
REMARK   36  A    between atoms: _86  and  _87
REMARK   37  A    between atoms: _87  and  _88
REMARK   38  A    between atoms: _91  and  _93
REMARK   39  A    between atoms: _93  and  _94
REMARK   40  A    between atoms: _93  and  _96
REMARK   41  A    between atoms: _96  and  _97
REMARK   42  A    between atoms: _103  and  _104
REMARK   43  A    between atoms: _109  and  _111
REMARK   44  A    between atoms: _111  and  _112
REMARK   45  A    between atoms: _111  and  _114
REMARK   46  A    between atoms: _114  and  _115
REMARK   47  A    between atoms: _118  and  _120
REMARK   48  A    between atoms: _120  and  _121
REMARK   49  A    between atoms: _120  and  _123
REMARK   50  A    between atoms: _123  and  _124
REMARK   51  A    between atoms: _124  and  _125
REMARK   52  A    between atoms: _130  and  _132
REMARK   53  A    between atoms: _132  and  _133
REMARK   54  A    between atoms: _135  and  _137
REMARK   55  A    between atoms: _137  and  _138
REMARK   56  A    between atoms: _137  and  _140
REMARK   57  A    between atoms: _140  and  _141
REMARK   58  A    between atoms: _144  and  _146
REMARK   59  A    between atoms: _146  and  _147
REMARK   60  A    between atoms: _146  and  _149
REMARK   61  A    between atoms: _151  and  _153
REMARK   62  A    between atoms: _153  and  _154
REMARK   63  A    between atoms: _156  and  _158
REMARK   64  A    between atoms: _158  and  _159
REMARK   65  A    between atoms: _158  and  _161
REMARK   66  A    between atoms: _161  and  _162
REMARK   67  A    between atoms: _167  and  _168
REMARK   68  A    between atoms: _170  and  _172
REMARK   69  A    between atoms: _172  and  _173
REMARK   70  A    between atoms: _172  and  _175
REMARK   71  A    between atoms: _175  and  _176
REMARK   72  A    between atoms: _181  and  _183
REMARK   73  A    between atoms: _183  and  _184
REMARK   74  A    between atoms: _183  and  _186
REMARK   75  A    between atoms: _186  and  _187
REMARK   76  A    between atoms: _190  and  _192
REMARK   77  A    between atoms: _192  and  _193
REMARK   78  A    between atoms: _192  and  _195
REMARK   79  A    between atoms: _199  and  _200
REMARK   80  A    between atoms: _205  and  _207
REMARK   81  A    between atoms: _207  and  _208
REMARK   82  A    between atoms: _210  and  _212
REMARK   83  A    between atoms: _212  and  _213
REMARK   84  A    between atoms: _212  and  _215
REMARK   85  A    between atoms: _213  and  _214
REMARK   86  A    between atoms: _213  and  _219
REMARK   87  A    between atoms: _214  and  CA_260
REMARK   88  A    between atoms: _215  and  _216
REMARK   89  A    between atoms: _219  and  _221
REMARK   90  A    between atoms: _221  and  _222
REMARK   91  A    between atoms: _221  and  _224
REMARK   92  A    between atoms: _224  and  _225
REMARK   93  A    between atoms: _230  and  _231
REMARK   94  A    between atoms: _233  and  _235
REMARK   95  A    between atoms: _235  and  _236
REMARK   96  A    between atoms: _238  and  _240
REMARK   97  A    between atoms: _240  and  _241
REMARK   98  A    between atoms: _240  and  _243
REMARK   99  A    between atoms: _243  and  _244
REMARK  100  A    between atoms: _249  and  _251
REMARK  101  A    between atoms: _251  and  _252
REMARK  102  A    between atoms: _251  and  _254
REMARK  103  A    between atoms: _254  and  _255
REMARK                            x       y       z     vdW  Elec       q    Type
REMARK                         _______ _______ _______ _____ _____    ______ ____
ROOT
ATOM      1  O   HOH     1      15.104  16.828  26.292  0.00  0.00    +0.000 OA
ENDROOT
TORSDOF 0
REMARK  Name = ../refined-set-2016/4ljh/4ljh_pocket.pdb
REMARK  103 active torsions:
REMARK  status: ('A' for Active; 'I' for Inactive)
REMARK    1  A    between atoms: _1  and  _3
REMARK    2  A    between atoms: _3  and  _4
REMARK    3  A    between atoms: _3  and  _6
REMARK    4  A    between atoms: _6  and  _7
REMARK    5  A    between atoms: _9  and  _11
REMARK    6  A    between atoms: _11  and  _12
REMARK    7  A    between atoms: _11  and  _14
REMARK    8  A    between atoms: _12  and  _13
REMARK    9  A    between atoms: _12  and  _23
REMARK   10  A    between atoms: _13  and  CA_260
REMARK   11  A    between atoms: _14  and  _15
REMARK   12  A    between atoms: _20  and  _21
REMARK   13  A    between atoms: _23  and  _25
REMARK   14  A    between atoms: _25  and  _26
REMARK   15  A    between atoms: _29  and  _30
REMARK   16  A    between atoms: _35  and  _37
REMARK   17  A    between atoms: _37  and  _38
REMARK   18  A    between atoms: _37  and  _40
REMARK   19  A    between atoms: _40  and  _41
REMARK   20  A    between atoms: _44  and  _46
REMARK   21  A    between atoms: _46  and  _47
REMARK   22  A    between atoms: _46  and  _49
REMARK   23  A    between atoms: _49  and  _50
REMARK   24  A    between atoms: _50  and  _51
REMARK   25  A    between atoms: _56  and  _58
REMARK   26  A    between atoms: _58  and  _59
REMARK   27  A    between atoms: _58  and  _61
REMARK   28  A    between atoms: _61  and  _62
REMARK   29  A    between atoms: _72  and  _74
REMARK   30  A    between atoms: _74  and  _75
REMARK   31  A    between atoms: _74  and  _77
REMARK   32  A    between atoms: _77  and  _78
REMARK   33  A    between atoms: _81  and  _83
REMARK   34  A    between atoms: _83  and  _84
REMARK   35  A    between atoms: _83  and  _86
REMARK   36  A    between atoms: _86  and  _87
REMARK   37  A    between atoms: _87  and  _88
REMARK   38  A    between atoms: _91  and  _93
REMARK   39  A    between atoms: _93  and  _94
REMARK   40  A    between atoms: _93  and  _96
REMARK   41  A    between atoms: _96  and  _97
REMARK   42  A    between atoms: _103  and  _104
REMARK   43  A    between atoms: _109  and  _111
REMARK   44  A    between atoms: _111  and  _112
REMARK   45  A    between atoms: _111  and  _114
REMARK   46  A    between atoms: _114  and  _115
REMARK   47  A    between atoms: _118  and  _120
REMARK   48  A    between atoms: _120  and  _121
REMARK   49  A    between atoms: _120  and  _123
REMARK   50  A    between atoms: _123  and  _124
REMARK   51  A    between atoms: _124  and  _125
REMARK   52  A    between atoms: _130  and  _132
REMARK   53  A    between atoms: _132  and  _133
REMARK   54  A    between atoms: _135  and  _137
REMARK   55  A    between atoms: _137  and  _138
REMARK   56  A    between atoms: _137  and  _140
REMARK   57  A    between atoms: _140  and  _141
REMARK   58  A    between atoms: _144  and  _146
REMARK   59  A    between atoms: _146  and  _147
REMARK   60  A    between atoms: _146  and  _149
REMARK   61  A    between atoms: _151  and  _153
REMARK   62  A    between atoms: _153  and  _154
REMARK   63  A    between atoms: _156  and  _158
REMARK   64  A    between atoms: _158  and  _159
REMARK   65  A    between atoms: _158  and  _161
REMARK   66  A    between atoms: _161  and  _162
REMARK   67  A    between atoms: _167  and  _168
REMARK   68  A    between atoms: _170  and  _172
REMARK   69  A    between atoms: _172  and  _173
REMARK   70  A    between atoms: _172  and  _175
REMARK   71  A    between atoms: _175  and  _176
REMARK   72  A    between atoms: _181  and  _183
REMARK   73  A    between atoms: _183  and  _184
REMARK   74  A    between atoms: _183  and  _186
REMARK   75  A    between atoms: _186  and  _187
REMARK   76  A    between atoms: _190  and  _192
REMARK   77  A    between atoms: _192  and  _193
REMARK   78  A    between atoms: _192  and  _195
REMARK   79  A    between atoms: _199  and  _200
REMARK   80  A    between atoms: _205  and  _207
REMARK   81  A    between atoms: _207  and  _208
REMARK   82  A    between atoms: _210  and  _212
REMARK   83  A    between atoms: _212  and  _213
REMARK   84  A    between atoms: _212  and  _215
REMARK   85  A    between atoms: _213  and  _214
REMARK   86  A    between atoms: _213  and  _219
REMARK   87  A    between atoms: _214  and  CA_260
REMARK   88  A    between atoms: _215  and  _216
REMARK   89  A    between atoms: _219  and  _221
REMARK   90  A    between atoms: _221  and  _222
REMARK   91  A    between atoms: _221  and  _224
REMARK   92  A    between atoms: _224  and  _225
REMARK   93  A    between atoms: _230  and  _231
REMARK   94  A    between atoms: _233  and  _235
REMARK   95  A    between atoms: _235  and  _236
REMARK   96  A    between atoms: _238  and  _240
REMARK   97  A    between atoms: _240  and  _241
REMARK   98  A    between atoms: _240  and  _243
REMARK   99  A    between atoms: _243  and  _244
REMARK  100  A    between atoms: _249  and  _251
REMARK  101  A    between atoms: _251  and  _252
REMARK  102  A    between atoms: _251  and  _254
REMARK  103  A    between atoms: _254  and  _255
REMARK                            x       y       z     vdW  Elec       q    Type
REMARK                         _______ _______ _______ _____ _____    ______ ____
ROOT
ATOM      1  O   HOH     1      11.110   4.558  34.207  0.00  0.00    +0.000 OA
ENDROOT
TORSDOF 0
REMARK  Name = ../refined-set-2016/4ljh/4ljh_pocket.pdb
REMARK  103 active torsions:
REMARK  status: ('A' for Active; 'I' for Inactive)
REMARK    1  A    between atoms: _1  and  _3
REMARK    2  A    between atoms: _3  and  _4
REMARK    3  A    between atoms: _3  and  _6
REMARK    4  A    between atoms: _6  and  _7
REMARK    5  A    between atoms: _9  and  _11
REMARK    6  A    between atoms: _11  and  _12
REMARK    7  A    between atoms: _11  and  _14
REMARK    8  A    between atoms: _12  and  _13
REMARK    9  A    between atoms: _12  and  _23
REMARK   10  A    between atoms: _13  and  CA_260
REMARK   11  A    between atoms: _14  and  _15
REMARK   12  A    between atoms: _20  and  _21
REMARK   13  A    between atoms: _23  and  _25
REMARK   14  A    between atoms: _25  and  _26
REMARK   15  A    between atoms: _29  and  _30
REMARK   16  A    between atoms: _35  and  _37
REMARK   17  A    between atoms: _37  and  _38
REMARK   18  A    between atoms: _37  and  _40
REMARK   19  A    between atoms: _40  and  _41
REMARK   20  A    between atoms: _44  and  _46
REMARK   21  A    between atoms: _46  and  _47
REMARK   22  A    between atoms: _46  and  _49
REMARK   23  A    between atoms: _49  and  _50
REMARK   24  A    between atoms: _50  and  _51
REMARK   25  A    between atoms: _56  and  _58
REMARK   26  A    between atoms: _58  and  _59
REMARK   27  A    between atoms: _58  and  _61
REMARK   28  A    between atoms: _61  and  _62
REMARK   29  A    between atoms: _72  and  _74
REMARK   30  A    between atoms: _74  and  _75
REMARK   31  A    between atoms: _74  and  _77
REMARK   32  A    between atoms: _77  and  _78
REMARK   33  A    between atoms: _81  and  _83
REMARK   34  A    between atoms: _83  and  _84
REMARK   35  A    between atoms: _83  and  _86
REMARK   36  A    between atoms: _86  and  _87
REMARK   37  A    between atoms: _87  and  _88
REMARK   38  A    between atoms: _91  and  _93
REMARK   39  A    between atoms: _93  and  _94
REMARK   40  A    between atoms: _93  and  _96
REMARK   41  A    between atoms: _96  and  _97
REMARK   42  A    between atoms: _103  and  _104
REMARK   43  A    between atoms: _109  and  _111
REMARK   44  A    between atoms: _111  and  _112
REMARK   45  A    between atoms: _111  and  _114
REMARK   46  A    between atoms: _114  and  _115
REMARK   47  A    between atoms: _118  and  _120
REMARK   48  A    between atoms: _120  and  _121
REMARK   49  A    between atoms: _120  and  _123
REMARK   50  A    between atoms: _123  and  _124
REMARK   51  A    between atoms: _124  and  _125
REMARK   52  A    between atoms: _130  and  _132
REMARK   53  A    between atoms: _132  and  _133
REMARK   54  A    between atoms: _135  and  _137
REMARK   55  A    between atoms: _137  and  _138
REMARK   56  A    between atoms: _137  and  _140
REMARK   57  A    between atoms: _140  and  _141
REMARK   58  A    between atoms: _144  and  _146
REMARK   59  A    between atoms: _146  and  _147
REMARK   60  A    between atoms: _146  and  _149
REMARK   61  A    between atoms: _151  and  _153
REMARK   62  A    between atoms: _153  and  _154
REMARK   63  A    between atoms: _156  and  _158
REMARK   64  A    between atoms: _158  and  _159
REMARK   65  A    between atoms: _158  and  _161
REMARK   66  A    between atoms: _161  and  _162
REMARK   67  A    between atoms: _167  and  _168
REMARK   68  A    between atoms: _170  and  _172
REMARK   69  A    between atoms: _172  and  _173
REMARK   70  A    between atoms: _172  and  _175
REMARK   71  A    between atoms: _175  and  _176
REMARK   72  A    between atoms: _181  and  _183
REMARK   73  A    between atoms: _183  and  _184
REMARK   74  A    between atoms: _183  and  _186
REMARK   75  A    between atoms: _186  and  _187
REMARK   76  A    between atoms: _190  and  _192
REMARK   77  A    between atoms: _192  and  _193
REMARK   78  A    between atoms: _192  and  _195
REMARK   79  A    between atoms: _199  and  _200
REMARK   80  A    between atoms: _205  and  _207
REMARK   81  A    between atoms: _207  and  _208
REMARK   82  A    between atoms: _210  and  _212
REMARK   83  A    between atoms: _212  and  _213
REMARK   84  A    between atoms: _212  and  _215
REMARK   85  A    between atoms: _213  and  _214
REMARK   86  A    between atoms: _213  and  _219
REMARK   87  A    between atoms: _214  and  CA_260
REMARK   88  A    between atoms: _215  and  _216
REMARK   89  A    between atoms: _219  and  _221
REMARK   90  A    between atoms: _221  and  _222
REMARK   91  A    between atoms: _221  and  _224
REMARK   92  A    between atoms: _224  and  _225
REMARK   93  A    between atoms: _230  and  _231
REMARK   94  A    between atoms: _233  and  _235
REMARK   95  A    between atoms: _235  and  _236
REMARK   96  A    between atoms: _238  and  _240
REMARK   97  A    between atoms: _240  and  _241
REMARK   98  A    between atoms: _240  and  _243
REMARK   99  A    between atoms: _243  and  _244
REMARK  100  A    between atoms: _249  and  _251
REMARK  101  A    between atoms: _251  and  _252
REMARK  102  A    between atoms: _251  and  _254
REMARK  103  A    between atoms: _254  and  _255
REMARK                            x       y       z     vdW  Elec       q    Type
REMARK                         _______ _______ _______ _____ _____    ______ ____
ROOT
ATOM      1  O   HOH     1      26.036   7.798  31.642  0.00  0.00    +0.000 OA
ENDROOT
TORSDOF 0
REMARK  Name = ../refined-set-2016/4ljh/4ljh_pocket.pdb
REMARK  103 active torsions:
REMARK  status: ('A' for Active; 'I' for Inactive)
REMARK    1  A    between atoms: _1  and  _3
REMARK    2  A    between atoms: _3  and  _4
REMARK    3  A    between atoms: _3  and  _6
REMARK    4  A    between atoms: _6  and  _7
REMARK    5  A    between atoms: _9  and  _11
REMARK    6  A    between atoms: _11  and  _12
REMARK    7  A    between atoms: _11  and  _14
REMARK    8  A    between atoms: _12  and  _13
REMARK    9  A    between atoms: _12  and  _23
REMARK   10  A    between atoms: _13  and  CA_260
REMARK   11  A    between atoms: _14  and  _15
REMARK   12  A    between atoms: _20  and  _21
REMARK   13  A    between atoms: _23  and  _25
REMARK   14  A    between atoms: _25  and  _26
REMARK   15  A    between atoms: _29  and  _30
REMARK   16  A    between atoms: _35  and  _37
REMARK   17  A    between atoms: _37  and  _38
REMARK   18  A    between atoms: _37  and  _40
REMARK   19  A    between atoms: _40  and  _41
REMARK   20  A    between atoms: _44  and  _46
REMARK   21  A    between atoms: _46  and  _47
REMARK   22  A    between atoms: _46  and  _49
REMARK   23  A    between atoms: _49  and  _50
REMARK   24  A    between atoms: _50  and  _51
REMARK   25  A    between atoms: _56  and  _58
REMARK   26  A    between atoms: _58  and  _59
REMARK   27  A    between atoms: _58  and  _61
REMARK   28  A    between atoms: _61  and  _62
REMARK   29  A    between atoms: _72  and  _74
REMARK   30  A    between atoms: _74  and  _75
REMARK   31  A    between atoms: _74  and  _77
REMARK   32  A    between atoms: _77  and  _78
REMARK   33  A    between atoms: _81  and  _83
REMARK   34  A    between atoms: _83  and  _84
REMARK   35  A    between atoms: _83  and  _86
REMARK   36  A    between atoms: _86  and  _87
REMARK   37  A    between atoms: _87  and  _88
REMARK   38  A    between atoms: _91  and  _93
REMARK   39  A    between atoms: _93  and  _94
REMARK   40  A    between atoms: _93  and  _96
REMARK   41  A    between atoms: _96  and  _97
REMARK   42  A    between atoms: _103  and  _104
REMARK   43  A    between atoms: _109  and  _111
REMARK   44  A    between atoms: _111  and  _112
REMARK   45  A    between atoms: _111  and  _114
REMARK   46  A    between atoms: _114  and  _115
REMARK   47  A    between atoms: _118  and  _120
REMARK   48  A    between atoms: _120  and  _121
REMARK   49  A    between atoms: _120  and  _123
REMARK   50  A    between atoms: _123  and  _124
REMARK   51  A    between atoms: _124  and  _125
REMARK   52  A    between atoms: _130  and  _132
REMARK   53  A    between atoms: _132  and  _133
REMARK   54  A    between atoms: _135  and  _137
REMARK   55  A    between atoms: _137  and  _138
REMARK   56  A    between atoms: _137  and  _140
REMARK   57  A    between atoms: _140  and  _141
REMARK   58  A    between atoms: _144  and  _146
REMARK   59  A    between atoms: _146  and  _147
REMARK   60  A    between atoms: _146  and  _149
REMARK   61  A    between atoms: _151  and  _153
REMARK   62  A    between atoms: _153  and  _154
REMARK   63  A    between atoms: _156  and  _158
REMARK   64  A    between atoms: _158  and  _159
REMARK   65  A    between atoms: _158  and  _161
REMARK   66  A    between atoms: _161  and  _162
REMARK   67  A    between atoms: _167  and  _168
REMARK   68  A    between atoms: _170  and  _172
REMARK   69  A    between atoms: _172  and  _173
REMARK   70  A    between atoms: _172  and  _175
REMARK   71  A    between atoms: _175  and  _176
REMARK   72  A    between atoms: _181  and  _183
REMARK   73  A    between atoms: _183  and  _184
REMARK   74  A    between atoms: _183  and  _186
REMARK   75  A    between atoms: _186  and  _187
REMARK   76  A    between atoms: _190  and  _192
REMARK   77  A    between atoms: _192  and  _193
REMARK   78  A    between atoms: _192  and  _195
REMARK   79  A    between atoms: _199  and  _200
REMARK   80  A    between atoms: _205  and  _207
REMARK   81  A    between atoms: _207  and  _208
REMARK   82  A    between atoms: _210  and  _212
REMARK   83  A    between atoms: _212  and  _213
REMARK   84  A    between atoms: _212  and  _215
REMARK   85  A    between atoms: _213  and  _214
REMARK   86  A    between atoms: _213  and  _219
REMARK   87  A    between atoms: _214  and  CA_260
REMARK   88  A    between atoms: _215  and  _216
REMARK   89  A    between atoms: _219  and  _221
REMARK   90  A    between atoms: _221  and  _222
REMARK   91  A    between atoms: _221  and  _224
REMARK   92  A    between atoms: _224  and  _225
REMARK   93  A    between atoms: _230  and  _231
REMARK   94  A    between atoms: _233  and  _235
REMARK   95  A    between atoms: _235  and  _236
REMARK   96  A    between atoms: _238  and  _240
REMARK   97  A    between atoms: _240  and  _241
REMARK   98  A    between atoms: _240  and  _243
REMARK   99  A    between atoms: _243  and  _244
REMARK  100  A    between atoms: _249  and  _251
REMARK  101  A    between atoms: _251  and  _252
REMARK  102  A    between atoms: _251  and  _254
REMARK  103  A    between atoms: _254  and  _255
REMARK                            x       y       z     vdW  Elec       q    Type
REMARK                         _______ _______ _______ _____ _____    ______ ____
ROOT
ATOM      1  O   HOH     1      20.875  17.830  36.907  0.00  0.00    +0.000 OA
ENDROOT
TORSDOF 0
REMARK  Name = ../refined-set-2016/4ljh/4ljh_pocket.pdb
REMARK  103 active torsions:
REMARK  status: ('A' for Active; 'I' for Inactive)
REMARK    1  A    between atoms: _1  and  _3
REMARK    2  A    between atoms: _3  and  _4
REMARK    3  A    between atoms: _3  and  _6
REMARK    4  A    between atoms: _6  and  _7
REMARK    5  A    between atoms: _9  and  _11
REMARK    6  A    between atoms: _11  and  _12
REMARK    7  A    between atoms: _11  and  _14
REMARK    8  A    between atoms: _12  and  _13
REMARK    9  A    between atoms: _12  and  _23
REMARK   10  A    between atoms: _13  and  CA_260
REMARK   11  A    between atoms: _14  and  _15
REMARK   12  A    between atoms: _20  and  _21
REMARK   13  A    between atoms: _23  and  _25
REMARK   14  A    between atoms: _25  and  _26
REMARK   15  A    between atoms: _29  and  _30
REMARK   16  A    between atoms: _35  and  _37
REMARK   17  A    between atoms: _37  and  _38
REMARK   18  A    between atoms: _37  and  _40
REMARK   19  A    between atoms: _40  and  _41
REMARK   20  A    between atoms: _44  and  _46
REMARK   21  A    between atoms: _46  and  _47
REMARK   22  A    between atoms: _46  and  _49
REMARK   23  A    between atoms: _49  and  _50
REMARK   24  A    between atoms: _50  and  _51
REMARK   25  A    between atoms: _56  and  _58
REMARK   26  A    between atoms: _58  and  _59
REMARK   27  A    between atoms: _58  and  _61
REMARK   28  A    between atoms: _61  and  _62
REMARK   29  A    between atoms: _72  and  _74
REMARK   30  A    between atoms: _74  and  _75
REMARK   31  A    between atoms: _74  and  _77
REMARK   32  A    between atoms: _77  and  _78
REMARK   33  A    between atoms: _81  and  _83
REMARK   34  A    between atoms: _83  and  _84
REMARK   35  A    between atoms: _83  and  _86
REMARK   36  A    between atoms: _86  and  _87
REMARK   37  A    between atoms: _87  and  _88
REMARK   38  A    between atoms: _91  and  _93
REMARK   39  A    between atoms: _93  and  _94
REMARK   40  A    between atoms: _93  and  _96
REMARK   41  A    between atoms: _96  and  _97
REMARK   42  A    between atoms: _103  and  _104
REMARK   43  A    between atoms: _109  and  _111
REMARK   44  A    between atoms: _111  and  _112
REMARK   45  A    between atoms: _111  and  _114
REMARK   46  A    between atoms: _114  and  _115
REMARK   47  A    between atoms: _118  and  _120
REMARK   48  A    between atoms: _120  and  _121
REMARK   49  A    between atoms: _120  and  _123
REMARK   50  A    between atoms: _123  and  _124
REMARK   51  A    between atoms: _124  and  _125
REMARK   52  A    between atoms: _130  and  _132
REMARK   53  A    between atoms: _132  and  _133
REMARK   54  A    between atoms: _135  and  _137
REMARK   55  A    between atoms: _137  and  _138
REMARK   56  A    between atoms: _137  and  _140
REMARK   57  A    between atoms: _140  and  _141
REMARK   58  A    between atoms: _144  and  _146
REMARK   59  A    between atoms: _146  and  _147
REMARK   60  A    between atoms: _146  and  _149
REMARK   61  A    between atoms: _151  and  _153
REMARK   62  A    between atoms: _153  and  _154
REMARK   63  A    between atoms: _156  and  _158
REMARK   64  A    between atoms: _158  and  _159
REMARK   65  A    between atoms: _158  and  _161
REMARK   66  A    between atoms: _161  and  _162
REMARK   67  A    between atoms: _167  and  _168
REMARK   68  A    between atoms: _170  and  _172
REMARK   69  A    between atoms: _172  and  _173
REMARK   70  A    between atoms: _172  and  _175
REMARK   71  A    between atoms: _175  and  _176
REMARK   72  A    between atoms: _181  and  _183
REMARK   73  A    between atoms: _183  and  _184
REMARK   74  A    between atoms: _183  and  _186
REMARK   75  A    between atoms: _186  and  _187
REMARK   76  A    between atoms: _190  and  _192
REMARK   77  A    between atoms: _192  and  _193
REMARK   78  A    between atoms: _192  and  _195
REMARK   79  A    between atoms: _199  and  _200
REMARK   80  A    between atoms: _205  and  _207
REMARK   81  A    between atoms: _207  and  _208
REMARK   82  A    between atoms: _210  and  _212
REMARK   83  A    between atoms: _212  and  _213
REMARK   84  A    between atoms: _212  and  _215
REMARK   85  A    between atoms: _213  and  _214
REMARK   86  A    between atoms: _213  and  _219
REMARK   87  A    between atoms: _214  and  CA_260
REMARK   88  A    between atoms: _215  and  _216
REMARK   89  A    between atoms: _219  and  _221
REMARK   90  A    between atoms: _221  and  _222
REMARK   91  A    between atoms: _221  and  _224
REMARK   92  A    between atoms: _224  and  _225
REMARK   93  A    between atoms: _230  and  _231
REMARK   94  A    between atoms: _233  and  _235
REMARK   95  A    between atoms: _235  and  _236
REMARK   96  A    between atoms: _238  and  _240
REMARK   97  A    between atoms: _240  and  _241
REMARK   98  A    between atoms: _240  and  _243
REMARK   99  A    between atoms: _243  and  _244
REMARK  100  A    between atoms: _249  and  _251
REMARK  101  A    between atoms: _251  and  _252
REMARK  102  A    between atoms: _251  and  _254
REMARK  103  A    between atoms: _254  and  _255
REMARK                            x       y       z     vdW  Elec       q    Type
REMARK                         _______ _______ _______ _____ _____    ______ ____
ROOT
ATOM      1  O   HOH     1      21.996  11.932  32.675  0.00  0.00    +0.000 OA
ENDROOT
TORSDOF 0
REMARK  Name = ../refined-set-2016/4ljh/4ljh_pocket.pdb
REMARK  103 active torsions:
REMARK  status: ('A' for Active; 'I' for Inactive)
REMARK    1  A    between atoms: _1  and  _3
REMARK    2  A    between atoms: _3  and  _4
REMARK    3  A    between atoms: _3  and  _6
REMARK    4  A    between atoms: _6  and  _7
REMARK    5  A    between atoms: _9  and  _11
REMARK    6  A    between atoms: _11  and  _12
REMARK    7  A    between atoms: _11  and  _14
REMARK    8  A    between atoms: _12  and  _13
REMARK    9  A    between atoms: _12  and  _23
REMARK   10  A    between atoms: _13  and  CA_260
REMARK   11  A    between atoms: _14  and  _15
REMARK   12  A    between atoms: _20  and  _21
REMARK   13  A    between atoms: _23  and  _25
REMARK   14  A    between atoms: _25  and  _26
REMARK   15  A    between atoms: _29  and  _30
REMARK   16  A    between atoms: _35  and  _37
REMARK   17  A    between atoms: _37  and  _38
REMARK   18  A    between atoms: _37  and  _40
REMARK   19  A    between atoms: _40  and  _41
REMARK   20  A    between atoms: _44  and  _46
REMARK   21  A    between atoms: _46  and  _47
REMARK   22  A    between atoms: _46  and  _49
REMARK   23  A    between atoms: _49  and  _50
REMARK   24  A    between atoms: _50  and  _51
REMARK   25  A    between atoms: _56  and  _58
REMARK   26  A    between atoms: _58  and  _59
REMARK   27  A    between atoms: _58  and  _61
REMARK   28  A    between atoms: _61  and  _62
REMARK   29  A    between atoms: _72  and  _74
REMARK   30  A    between atoms: _74  and  _75
REMARK   31  A    between atoms: _74  and  _77
REMARK   32  A    between atoms: _77  and  _78
REMARK   33  A    between atoms: _81  and  _83
REMARK   34  A    between atoms: _83  and  _84
REMARK   35  A    between atoms: _83  and  _86
REMARK   36  A    between atoms: _86  and  _87
REMARK   37  A    between atoms: _87  and  _88
REMARK   38  A    between atoms: _91  and  _93
REMARK   39  A    between atoms: _93  and  _94
REMARK   40  A    between atoms: _93  and  _96
REMARK   41  A    between atoms: _96  and  _97
REMARK   42  A    between atoms: _103  and  _104
REMARK   43  A    between atoms: _109  and  _111
REMARK   44  A    between atoms: _111  and  _112
REMARK   45  A    between atoms: _111  and  _114
REMARK   46  A    between atoms: _114  and  _115
REMARK   47  A    between atoms: _118  and  _120
REMARK   48  A    between atoms: _120  and  _121
REMARK   49  A    between atoms: _120  and  _123
REMARK   50  A    between atoms: _123  and  _124
REMARK   51  A    between atoms: _124  and  _125
REMARK   52  A    between atoms: _130  and  _132
REMARK   53  A    between atoms: _132  and  _133
REMARK   54  A    between atoms: _135  and  _137
REMARK   55  A    between atoms: _137  and  _138
REMARK   56  A    between atoms: _137  and  _140
REMARK   57  A    between atoms: _140  and  _141
REMARK   58  A    between atoms: _144  and  _146
REMARK   59  A    between atoms: _146  and  _147
REMARK   60  A    between atoms: _146  and  _149
REMARK   61  A    between atoms: _151  and  _153
REMARK   62  A    between atoms: _153  and  _154
REMARK   63  A    between atoms: _156  and  _158
REMARK   64  A    between atoms: _158  and  _159
REMARK   65  A    between atoms: _158  and  _161
REMARK   66  A    between atoms: _161  and  _162
REMARK   67  A    between atoms: _167  and  _168
REMARK   68  A    between atoms: _170  and  _172
REMARK   69  A    between atoms: _172  and  _173
REMARK   70  A    between atoms: _172  and  _175
REMARK   71  A    between atoms: _175  and  _176
REMARK   72  A    between atoms: _181  and  _183
REMARK   73  A    between atoms: _183  and  _184
REMARK   74  A    between atoms: _183  and  _186
REMARK   75  A    between atoms: _186  and  _187
REMARK   76  A    between atoms: _190  and  _192
REMARK   77  A    between atoms: _192  and  _193
REMARK   78  A    between atoms: _192  and  _195
REMARK   79  A    between atoms: _199  and  _200
REMARK   80  A    between atoms: _205  and  _207
REMARK   81  A    between atoms: _207  and  _208
REMARK   82  A    between atoms: _210  and  _212
REMARK   83  A    between atoms: _212  and  _213
REMARK   84  A    between atoms: _212  and  _215
REMARK   85  A    between atoms: _213  and  _214
REMARK   86  A    between atoms: _213  and  _219
REMARK   87  A    between atoms: _214  and  CA_260
REMARK   88  A    between atoms: _215  and  _216
REMARK   89  A    between atoms: _219  and  _221
REMARK   90  A    between atoms: _221  and  _222
REMARK   91  A    between atoms: _221  and  _224
REMARK   92  A    between atoms: _224  and  _225
REMARK   93  A    between atoms: _230  and  _231
REMARK   94  A    between atoms: _233  and  _235
REMARK   95  A    between atoms: _235  and  _236
REMARK   96  A    between atoms: _238  and  _240
REMARK   97  A    between atoms: _240  and  _241
REMARK   98  A    between atoms: _240  and  _243
REMARK   99  A    between atoms: _243  and  _244
REMARK  100  A    between atoms: _249  and  _251
REMARK  101  A    between atoms: _251  and  _252
REMARK  102  A    between atoms: _251  and  _254
REMARK  103  A    between atoms: _254  and  _255
REMARK                            x       y       z     vdW  Elec       q    Type
REMARK                         _______ _______ _______ _____ _____    ______ ____
ROOT
ATOM      1  O   HOH     1      22.246  15.464  36.636  0.00  0.00    +0.000 OA
ENDROOT
TORSDOF 0
REMARK  Name = ../refined-set-2016/4ljh/4ljh_pocket.pdb
REMARK  103 active torsions:
REMARK  status: ('A' for Active; 'I' for Inactive)
REMARK    1  A    between atoms: _1  and  _3
REMARK    2  A    between atoms: _3  and  _4
REMARK    3  A    between atoms: _3  and  _6
REMARK    4  A    between atoms: _6  and  _7
REMARK    5  A    between atoms: _9  and  _11
REMARK    6  A    between atoms: _11  and  _12
REMARK    7  A    between atoms: _11  and  _14
REMARK    8  A    between atoms: _12  and  _13
REMARK    9  A    between atoms: _12  and  _23
REMARK   10  A    between atoms: _13  and  CA_260
REMARK   11  A    between atoms: _14  and  _15
REMARK   12  A    between atoms: _20  and  _21
REMARK   13  A    between atoms: _23  and  _25
REMARK   14  A    between atoms: _25  and  _26
REMARK   15  A    between atoms: _29  and  _30
REMARK   16  A    between atoms: _35  and  _37
REMARK   17  A    between atoms: _37  and  _38
REMARK   18  A    between atoms: _37  and  _40
REMARK   19  A    between atoms: _40  and  _41
REMARK   20  A    between atoms: _44  and  _46
REMARK   21  A    between atoms: _46  and  _47
REMARK   22  A    between atoms: _46  and  _49
REMARK   23  A    between atoms: _49  and  _50
REMARK   24  A    between atoms: _50  and  _51
REMARK   25  A    between atoms: _56  and  _58
REMARK   26  A    between atoms: _58  and  _59
REMARK   27  A    between atoms: _58  and  _61
REMARK   28  A    between atoms: _61  and  _62
REMARK   29  A    between atoms: _72  and  _74
REMARK   30  A    between atoms: _74  and  _75
REMARK   31  A    between atoms: _74  and  _77
REMARK   32  A    between atoms: _77  and  _78
REMARK   33  A    between atoms: _81  and  _83
REMARK   34  A    between atoms: _83  and  _84
REMARK   35  A    between atoms: _83  and  _86
REMARK   36  A    between atoms: _86  and  _87
REMARK   37  A    between atoms: _87  and  _88
REMARK   38  A    between atoms: _91  and  _93
REMARK   39  A    between atoms: _93  and  _94
REMARK   40  A    between atoms: _93  and  _96
REMARK   41  A    between atoms: _96  and  _97
REMARK   42  A    between atoms: _103  and  _104
REMARK   43  A    between atoms: _109  and  _111
REMARK   44  A    between atoms: _111  and  _112
REMARK   45  A    between atoms: _111  and  _114
REMARK   46  A    between atoms: _114  and  _115
REMARK   47  A    between atoms: _118  and  _120
REMARK   48  A    between atoms: _120  and  _121
REMARK   49  A    between atoms: _120  and  _123
REMARK   50  A    between atoms: _123  and  _124
REMARK   51  A    between atoms: _124  and  _125
REMARK   52  A    between atoms: _130  and  _132
REMARK   53  A    between atoms: _132  and  _133
REMARK   54  A    between atoms: _135  and  _137
REMARK   55  A    between atoms: _137  and  _138
REMARK   56  A    between atoms: _137  and  _140
REMARK   57  A    between atoms: _140  and  _141
REMARK   58  A    between atoms: _144  and  _146
REMARK   59  A    between atoms: _146  and  _147
REMARK   60  A    between atoms: _146  and  _149
REMARK   61  A    between atoms: _151  and  _153
REMARK   62  A    between atoms: _153  and  _154
REMARK   63  A    between atoms: _156  and  _158
REMARK   64  A    between atoms: _158  and  _159
REMARK   65  A    between atoms: _158  and  _161
REMARK   66  A    between atoms: _161  and  _162
REMARK   67  A    between atoms: _167  and  _168
REMARK   68  A    between atoms: _170  and  _172
REMARK   69  A    between atoms: _172  and  _173
REMARK   70  A    between atoms: _172  and  _175
REMARK   71  A    between atoms: _175  and  _176
REMARK   72  A    between atoms: _181  and  _183
REMARK   73  A    between atoms: _183  and  _184
REMARK   74  A    between atoms: _183  and  _186
REMARK   75  A    between atoms: _186  and  _187
REMARK   76  A    between atoms: _190  and  _192
REMARK   77  A    between atoms: _192  and  _193
REMARK   78  A    between atoms: _192  and  _195
REMARK   79  A    between atoms: _199  and  _200
REMARK   80  A    between atoms: _205  and  _207
REMARK   81  A    between atoms: _207  and  _208
REMARK   82  A    between atoms: _210  and  _212
REMARK   83  A    between atoms: _212  and  _213
REMARK   84  A    between atoms: _212  and  _215
REMARK   85  A    between atoms: _213  and  _214
REMARK   86  A    between atoms: _213  and  _219
REMARK   87  A    between atoms: _214  and  CA_260
REMARK   88  A    between atoms: _215  and  _216
REMARK   89  A    between atoms: _219  and  _221
REMARK   90  A    between atoms: _221  and  _222
REMARK   91  A    between atoms: _221  and  _224
REMARK   92  A    between atoms: _224  and  _225
REMARK   93  A    between atoms: _230  and  _231
REMARK   94  A    between atoms: _233  and  _235
REMARK   95  A    between atoms: _235  and  _236
REMARK   96  A    between atoms: _238  and  _240
REMARK   97  A    between atoms: _240  and  _241
REMARK   98  A    between atoms: _240  and  _243
REMARK   99  A    between atoms: _243  and  _244
REMARK  100  A    between atoms: _249  and  _251
REMARK  101  A    between atoms: _251  and  _252
REMARK  102  A    between atoms: _251  and  _254
REMARK  103  A    between atoms: _254  and  _255
REMARK                            x       y       z     vdW  Elec       q    Type
REMARK                         _______ _______ _______ _____ _____    ______ ____
ROOT
ATOM      1  O   HOH     1       8.149  14.036  36.269  0.00  0.00    +0.000 OA
ENDROOT
TORSDOF 0
REMARK  Name = ../refined-set-2016/4ljh/4ljh_pocket.pdb
REMARK  103 active torsions:
REMARK  status: ('A' for Active; 'I' for Inactive)
REMARK    1  A    between atoms: _1  and  _3
REMARK    2  A    between atoms: _3  and  _4
REMARK    3  A    between atoms: _3  and  _6
REMARK    4  A    between atoms: _6  and  _7
REMARK    5  A    between atoms: _9  and  _11
REMARK    6  A    between atoms: _11  and  _12
REMARK    7  A    between atoms: _11  and  _14
REMARK    8  A    between atoms: _12  and  _13
REMARK    9  A    between atoms: _12  and  _23
REMARK   10  A    between atoms: _13  and  CA_260
REMARK   11  A    between atoms: _14  and  _15
REMARK   12  A    between atoms: _20  and  _21
REMARK   13  A    between atoms: _23  and  _25
REMARK   14  A    between atoms: _25  and  _26
REMARK   15  A    between atoms: _29  and  _30
REMARK   16  A    between atoms: _35  and  _37
REMARK   17  A    between atoms: _37  and  _38
REMARK   18  A    between atoms: _37  and  _40
REMARK   19  A    between atoms: _40  and  _41
REMARK   20  A    between atoms: _44  and  _46
REMARK   21  A    between atoms: _46  and  _47
REMARK   22  A    between atoms: _46  and  _49
REMARK   23  A    between atoms: _49  and  _50
REMARK   24  A    between atoms: _50  and  _51
REMARK   25  A    between atoms: _56  and  _58
REMARK   26  A    between atoms: _58  and  _59
REMARK   27  A    between atoms: _58  and  _61
REMARK   28  A    between atoms: _61  and  _62
REMARK   29  A    between atoms: _72  and  _74
REMARK   30  A    between atoms: _74  and  _75
REMARK   31  A    between atoms: _74  and  _77
REMARK   32  A    between atoms: _77  and  _78
REMARK   33  A    between atoms: _81  and  _83
REMARK   34  A    between atoms: _83  and  _84
REMARK   35  A    between atoms: _83  and  _86
REMARK   36  A    between atoms: _86  and  _87
REMARK   37  A    between atoms: _87  and  _88
REMARK   38  A    between atoms: _91  and  _93
REMARK   39  A    between atoms: _93  and  _94
REMARK   40  A    between atoms: _93  and  _96
REMARK   41  A    between atoms: _96  and  _97
REMARK   42  A    between atoms: _103  and  _104
REMARK   43  A    between atoms: _109  and  _111
REMARK   44  A    between atoms: _111  and  _112
REMARK   45  A    between atoms: _111  and  _114
REMARK   46  A    between atoms: _114  and  _115
REMARK   47  A    between atoms: _118  and  _120
REMARK   48  A    between atoms: _120  and  _121
REMARK   49  A    between atoms: _120  and  _123
REMARK   50  A    between atoms: _123  and  _124
REMARK   51  A    between atoms: _124  and  _125
REMARK   52  A    between atoms: _130  and  _132
REMARK   53  A    between atoms: _132  and  _133
REMARK   54  A    between atoms: _135  and  _137
REMARK   55  A    between atoms: _137  and  _138
REMARK   56  A    between atoms: _137  and  _140
REMARK   57  A    between atoms: _140  and  _141
REMARK   58  A    between atoms: _144  and  _146
REMARK   59  A    between atoms: _146  and  _147
REMARK   60  A    between atoms: _146  and  _149
REMARK   61  A    between atoms: _151  and  _153
REMARK   62  A    between atoms: _153  and  _154
REMARK   63  A    between atoms: _156  and  _158
REMARK   64  A    between atoms: _158  and  _159
REMARK   65  A    between atoms: _158  and  _161
REMARK   66  A    between atoms: _161  and  _162
REMARK   67  A    between atoms: _167  and  _168
REMARK   68  A    between atoms: _170  and  _172
REMARK   69  A    between atoms: _172  and  _173
REMARK   70  A    between atoms: _172  and  _175
REMARK   71  A    between atoms: _175  and  _176
REMARK   72  A    between atoms: _181  and  _183
REMARK   73  A    between atoms: _183  and  _184
REMARK   74  A    between atoms: _183  and  _186
REMARK   75  A    between atoms: _186  and  _187
REMARK   76  A    between atoms: _190  and  _192
REMARK   77  A    between atoms: _192  and  _193
REMARK   78  A    between atoms: _192  and  _195
REMARK   79  A    between atoms: _199  and  _200
REMARK   80  A    between atoms: _205  and  _207
REMARK   81  A    between atoms: _207  and  _208
REMARK   82  A    between atoms: _210  and  _212
REMARK   83  A    between atoms: _212  and  _213
REMARK   84  A    between atoms: _212  and  _215
REMARK   85  A    between atoms: _213  and  _214
REMARK   86  A    between atoms: _213  and  _219
REMARK   87  A    between atoms: _214  and  CA_260
REMARK   88  A    between atoms: _215  and  _216
REMARK   89  A    between atoms: _219  and  _221
REMARK   90  A    between atoms: _221  and  _222
REMARK   91  A    between atoms: _221  and  _224
REMARK   92  A    between atoms: _224  and  _225
REMARK   93  A    between atoms: _230  and  _231
REMARK   94  A    between atoms: _233  and  _235
REMARK   95  A    between atoms: _235  and  _236
REMARK   96  A    between atoms: _238  and  _240
REMARK   97  A    between atoms: _240  and  _241
REMARK   98  A    between atoms: _240  and  _243
REMARK   99  A    between atoms: _243  and  _244
REMARK  100  A    between atoms: _249  and  _251
REMARK  101  A    between atoms: _251  and  _252
REMARK  102  A    between atoms: _251  and  _254
REMARK  103  A    between atoms: _254  and  _255
REMARK                            x       y       z     vdW  Elec       q    Type
REMARK                         _______ _______ _______ _____ _____    ______ ____
ROOT
ATOM      1  O   HOH     1      24.281  13.178  31.650  0.00  0.00    +0.000 OA
ENDROOT
TORSDOF 0
REMARK  Name = ../refined-set-2016/4ljh/4ljh_pocket.pdb
REMARK  103 active torsions:
REMARK  status: ('A' for Active; 'I' for Inactive)
REMARK    1  A    between atoms: _1  and  _3
REMARK    2  A    between atoms: _3  and  _4
REMARK    3  A    between atoms: _3  and  _6
REMARK    4  A    between atoms: _6  and  _7
REMARK    5  A    between atoms: _9  and  _11
REMARK    6  A    between atoms: _11  and  _12
REMARK    7  A    between atoms: _11  and  _14
REMARK    8  A    between atoms: _12  and  _13
REMARK    9  A    between atoms: _12  and  _23
REMARK   10  A    between atoms: _13  and  CA_260
REMARK   11  A    between atoms: _14  and  _15
REMARK   12  A    between atoms: _20  and  _21
REMARK   13  A    between atoms: _23  and  _25
REMARK   14  A    between atoms: _25  and  _26
REMARK   15  A    between atoms: _29  and  _30
REMARK   16  A    between atoms: _35  and  _37
REMARK   17  A    between atoms: _37  and  _38
REMARK   18  A    between atoms: _37  and  _40
REMARK   19  A    between atoms: _40  and  _41
REMARK   20  A    between atoms: _44  and  _46
REMARK   21  A    between atoms: _46  and  _47
REMARK   22  A    between atoms: _46  and  _49
REMARK   23  A    between atoms: _49  and  _50
REMARK   24  A    between atoms: _50  and  _51
REMARK   25  A    between atoms: _56  and  _58
REMARK   26  A    between atoms: _58  and  _59
REMARK   27  A    between atoms: _58  and  _61
REMARK   28  A    between atoms: _61  and  _62
REMARK   29  A    between atoms: _72  and  _74
REMARK   30  A    between atoms: _74  and  _75
REMARK   31  A    between atoms: _74  and  _77
REMARK   32  A    between atoms: _77  and  _78
REMARK   33  A    between atoms: _81  and  _83
REMARK   34  A    between atoms: _83  and  _84
REMARK   35  A    between atoms: _83  and  _86
REMARK   36  A    between atoms: _86  and  _87
REMARK   37  A    between atoms: _87  and  _88
REMARK   38  A    between atoms: _91  and  _93
REMARK   39  A    between atoms: _93  and  _94
REMARK   40  A    between atoms: _93  and  _96
REMARK   41  A    between atoms: _96  and  _97
REMARK   42  A    between atoms: _103  and  _104
REMARK   43  A    between atoms: _109  and  _111
REMARK   44  A    between atoms: _111  and  _112
REMARK   45  A    between atoms: _111  and  _114
REMARK   46  A    between atoms: _114  and  _115
REMARK   47  A    between atoms: _118  and  _120
REMARK   48  A    between atoms: _120  and  _121
REMARK   49  A    between atoms: _120  and  _123
REMARK   50  A    between atoms: _123  and  _124
REMARK   51  A    between atoms: _124  and  _125
REMARK   52  A    between atoms: _130  and  _132
REMARK   53  A    between atoms: _132  and  _133
REMARK   54  A    between atoms: _135  and  _137
REMARK   55  A    between atoms: _137  and  _138
REMARK   56  A    between atoms: _137  and  _140
REMARK   57  A    between atoms: _140  and  _141
REMARK   58  A    between atoms: _144  and  _146
REMARK   59  A    between atoms: _146  and  _147
REMARK   60  A    between atoms: _146  and  _149
REMARK   61  A    between atoms: _151  and  _153
REMARK   62  A    between atoms: _153  and  _154
REMARK   63  A    between atoms: _156  and  _158
REMARK   64  A    between atoms: _158  and  _159
REMARK   65  A    between atoms: _158  and  _161
REMARK   66  A    between atoms: _161  and  _162
REMARK   67  A    between atoms: _167  and  _168
REMARK   68  A    between atoms: _170  and  _172
REMARK   69  A    between atoms: _172  and  _173
REMARK   70  A    between atoms: _172  and  _175
REMARK   71  A    between atoms: _175  and  _176
REMARK   72  A    between atoms: _181  and  _183
REMARK   73  A    between atoms: _183  and  _184
REMARK   74  A    between atoms: _183  and  _186
REMARK   75  A    between atoms: _186  and  _187
REMARK   76  A    between atoms: _190  and  _192
REMARK   77  A    between atoms: _192  and  _193
REMARK   78  A    between atoms: _192  and  _195
REMARK   79  A    between atoms: _199  and  _200
REMARK   80  A    between atoms: _205  and  _207
REMARK   81  A    between atoms: _207  and  _208
REMARK   82  A    between atoms: _210  and  _212
REMARK   83  A    between atoms: _212  and  _213
REMARK   84  A    between atoms: _212  and  _215
REMARK   85  A    between atoms: _213  and  _214
REMARK   86  A    between atoms: _213  and  _219
REMARK   87  A    between atoms: _214  and  CA_260
REMARK   88  A    between atoms: _215  and  _216
REMARK   89  A    between atoms: _219  and  _221
REMARK   90  A    between atoms: _221  and  _222
REMARK   91  A    between atoms: _221  and  _224
REMARK   92  A    between atoms: _224  and  _225
REMARK   93  A    between atoms: _230  and  _231
REMARK   94  A    between atoms: _233  and  _235
REMARK   95  A    between atoms: _235  and  _236
REMARK   96  A    between atoms: _238  and  _240
REMARK   97  A    between atoms: _240  and  _241
REMARK   98  A    between atoms: _240  and  _243
REMARK   99  A    between atoms: _243  and  _244
REMARK  100  A    between atoms: _249  and  _251
REMARK  101  A    between atoms: _251  and  _252
REMARK  102  A    between atoms: _251  and  _254
REMARK  103  A    between atoms: _254  and  _255
REMARK                            x       y       z     vdW  Elec       q    Type
REMARK                         _______ _______ _______ _____ _____    ______ ____
ROOT
ATOM      1  O   HOH     1      25.297  10.707  32.551  0.00  0.00    +0.000 OA
ENDROOT
TORSDOF 0
REMARK  Name = ../refined-set-2016/4ljh/4ljh_pocket.pdb
REMARK  103 active torsions:
REMARK  status: ('A' for Active; 'I' for Inactive)
REMARK    1  A    between atoms: _1  and  _3
REMARK    2  A    between atoms: _3  and  _4
REMARK    3  A    between atoms: _3  and  _6
REMARK    4  A    between atoms: _6  and  _7
REMARK    5  A    between atoms: _9  and  _11
REMARK    6  A    between atoms: _11  and  _12
REMARK    7  A    between atoms: _11  and  _14
REMARK    8  A    between atoms: _12  and  _13
REMARK    9  A    between atoms: _12  and  _23
REMARK   10  A    between atoms: _13  and  CA_260
REMARK   11  A    between atoms: _14  and  _15
REMARK   12  A    between atoms: _20  and  _21
REMARK   13  A    between atoms: _23  and  _25
REMARK   14  A    between atoms: _25  and  _26
REMARK   15  A    between atoms: _29  and  _30
REMARK   16  A    between atoms: _35  and  _37
REMARK   17  A    between atoms: _37  and  _38
REMARK   18  A    between atoms: _37  and  _40
REMARK   19  A    between atoms: _40  and  _41
REMARK   20  A    between atoms: _44  and  _46
REMARK   21  A    between atoms: _46  and  _47
REMARK   22  A    between atoms: _46  and  _49
REMARK   23  A    between atoms: _49  and  _50
REMARK   24  A    between atoms: _50  and  _51
REMARK   25  A    between atoms: _56  and  _58
REMARK   26  A    between atoms: _58  and  _59
REMARK   27  A    between atoms: _58  and  _61
REMARK   28  A    between atoms: _61  and  _62
REMARK   29  A    between atoms: _72  and  _74
REMARK   30  A    between atoms: _74  and  _75
REMARK   31  A    between atoms: _74  and  _77
REMARK   32  A    between atoms: _77  and  _78
REMARK   33  A    between atoms: _81  and  _83
REMARK   34  A    between atoms: _83  and  _84
REMARK   35  A    between atoms: _83  and  _86
REMARK   36  A    between atoms: _86  and  _87
REMARK   37  A    between atoms: _87  and  _88
REMARK   38  A    between atoms: _91  and  _93
REMARK   39  A    between atoms: _93  and  _94
REMARK   40  A    between atoms: _93  and  _96
REMARK   41  A    between atoms: _96  and  _97
REMARK   42  A    between atoms: _103  and  _104
REMARK   43  A    between atoms: _109  and  _111
REMARK   44  A    between atoms: _111  and  _112
REMARK   45  A    between atoms: _111  and  _114
REMARK   46  A    between atoms: _114  and  _115
REMARK   47  A    between atoms: _118  and  _120
REMARK   48  A    between atoms: _120  and  _121
REMARK   49  A    between atoms: _120  and  _123
REMARK   50  A    between atoms: _123  and  _124
REMARK   51  A    between atoms: _124  and  _125
REMARK   52  A    between atoms: _130  and  _132
REMARK   53  A    between atoms: _132  and  _133
REMARK   54  A    between atoms: _135  and  _137
REMARK   55  A    between atoms: _137  and  _138
REMARK   56  A    between atoms: _137  and  _140
REMARK   57  A    between atoms: _140  and  _141
REMARK   58  A    between atoms: _144  and  _146
REMARK   59  A    between atoms: _146  and  _147
REMARK   60  A    between atoms: _146  and  _149
REMARK   61  A    between atoms: _151  and  _153
REMARK   62  A    between atoms: _153  and  _154
REMARK   63  A    between atoms: _156  and  _158
REMARK   64  A    between atoms: _158  and  _159
REMARK   65  A    between atoms: _158  and  _161
REMARK   66  A    between atoms: _161  and  _162
REMARK   67  A    between atoms: _167  and  _168
REMARK   68  A    between atoms: _170  and  _172
REMARK   69  A    between atoms: _172  and  _173
REMARK   70  A    between atoms: _172  and  _175
REMARK   71  A    between atoms: _175  and  _176
REMARK   72  A    between atoms: _181  and  _183
REMARK   73  A    between atoms: _183  and  _184
REMARK   74  A    between atoms: _183  and  _186
REMARK   75  A    between atoms: _186  and  _187
REMARK   76  A    between atoms: _190  and  _192
REMARK   77  A    between atoms: _192  and  _193
REMARK   78  A    between atoms: _192  and  _195
REMARK   79  A    between atoms: _199  and  _200
REMARK   80  A    between atoms: _205  and  _207
REMARK   81  A    between atoms: _207  and  _208
REMARK   82  A    between atoms: _210  and  _212
REMARK   83  A    between atoms: _212  and  _213
REMARK   84  A    between atoms: _212  and  _215
REMARK   85  A    between atoms: _213  and  _214
REMARK   86  A    between atoms: _213  and  _219
REMARK   87  A    between atoms: _214  and  CA_260
REMARK   88  A    between atoms: _215  and  _216
REMARK   89  A    between atoms: _219  and  _221
REMARK   90  A    between atoms: _221  and  _222
REMARK   91  A    between atoms: _221  and  _224
REMARK   92  A    between atoms: _224  and  _225
REMARK   93  A    between atoms: _230  and  _231
REMARK   94  A    between atoms: _233  and  _235
REMARK   95  A    between atoms: _235  and  _236
REMARK   96  A    between atoms: _238  and  _240
REMARK   97  A    between atoms: _240  and  _241
REMARK   98  A    between atoms: _240  and  _243
REMARK   99  A    between atoms: _243  and  _244
REMARK  100  A    between atoms: _249  and  _251
REMARK  101  A    between atoms: _251  and  _252
REMARK  102  A    between atoms: _251  and  _254
REMARK  103  A    between atoms: _254  and  _255
REMARK                            x       y       z     vdW  Elec       q    Type
REMARK                         _______ _______ _______ _____ _____    ______ ____
ROOT
ATOM      1  O   HOH     1      11.589  17.168  32.960  0.00  0.00    +0.000 OA
ENDROOT
TORSDOF 0
REMARK  Name = ../refined-set-2016/4ljh/4ljh_pocket.pdb
REMARK  103 active torsions:
REMARK  status: ('A' for Active; 'I' for Inactive)
REMARK    1  A    between atoms: _1  and  _3
REMARK    2  A    between atoms: _3  and  _4
REMARK    3  A    between atoms: _3  and  _6
REMARK    4  A    between atoms: _6  and  _7
REMARK    5  A    between atoms: _9  and  _11
REMARK    6  A    between atoms: _11  and  _12
REMARK    7  A    between atoms: _11  and  _14
REMARK    8  A    between atoms: _12  and  _13
REMARK    9  A    between atoms: _12  and  _23
REMARK   10  A    between atoms: _13  and  CA_260
REMARK   11  A    between atoms: _14  and  _15
REMARK   12  A    between atoms: _20  and  _21
REMARK   13  A    between atoms: _23  and  _25
REMARK   14  A    between atoms: _25  and  _26
REMARK   15  A    between atoms: _29  and  _30
REMARK   16  A    between atoms: _35  and  _37
REMARK   17  A    between atoms: _37  and  _38
REMARK   18  A    between atoms: _37  and  _40
REMARK   19  A    between atoms: _40  and  _41
REMARK   20  A    between atoms: _44  and  _46
REMARK   21  A    between atoms: _46  and  _47
REMARK   22  A    between atoms: _46  and  _49
REMARK   23  A    between atoms: _49  and  _50
REMARK   24  A    between atoms: _50  and  _51
REMARK   25  A    between atoms: _56  and  _58
REMARK   26  A    between atoms: _58  and  _59
REMARK   27  A    between atoms: _58  and  _61
REMARK   28  A    between atoms: _61  and  _62
REMARK   29  A    between atoms: _72  and  _74
REMARK   30  A    between atoms: _74  and  _75
REMARK   31  A    between atoms: _74  and  _77
REMARK   32  A    between atoms: _77  and  _78
REMARK   33  A    between atoms: _81  and  _83
REMARK   34  A    between atoms: _83  and  _84
REMARK   35  A    between atoms: _83  and  _86
REMARK   36  A    between atoms: _86  and  _87
REMARK   37  A    between atoms: _87  and  _88
REMARK   38  A    between atoms: _91  and  _93
REMARK   39  A    between atoms: _93  and  _94
REMARK   40  A    between atoms: _93  and  _96
REMARK   41  A    between atoms: _96  and  _97
REMARK   42  A    between atoms: _103  and  _104
REMARK   43  A    between atoms: _109  and  _111
REMARK   44  A    between atoms: _111  and  _112
REMARK   45  A    between atoms: _111  and  _114
REMARK   46  A    between atoms: _114  and  _115
REMARK   47  A    between atoms: _118  and  _120
REMARK   48  A    between atoms: _120  and  _121
REMARK   49  A    between atoms: _120  and  _123
REMARK   50  A    between atoms: _123  and  _124
REMARK   51  A    between atoms: _124  and  _125
REMARK   52  A    between atoms: _130  and  _132
REMARK   53  A    between atoms: _132  and  _133
REMARK   54  A    between atoms: _135  and  _137
REMARK   55  A    between atoms: _137  and  _138
REMARK   56  A    between atoms: _137  and  _140
REMARK   57  A    between atoms: _140  and  _141
REMARK   58  A    between atoms: _144  and  _146
REMARK   59  A    between atoms: _146  and  _147
REMARK   60  A    between atoms: _146  and  _149
REMARK   61  A    between atoms: _151  and  _153
REMARK   62  A    between atoms: _153  and  _154
REMARK   63  A    between atoms: _156  and  _158
REMARK   64  A    between atoms: _158  and  _159
REMARK   65  A    between atoms: _158  and  _161
REMARK   66  A    between atoms: _161  and  _162
REMARK   67  A    between atoms: _167  and  _168
REMARK   68  A    between atoms: _170  and  _172
REMARK   69  A    between atoms: _172  and  _173
REMARK   70  A    between atoms: _172  and  _175
REMARK   71  A    between atoms: _175  and  _176
REMARK   72  A    between atoms: _181  and  _183
REMARK   73  A    between atoms: _183  and  _184
REMARK   74  A    between atoms: _183  and  _186
REMARK   75  A    between atoms: _186  and  _187
REMARK   76  A    between atoms: _190  and  _192
REMARK   77  A    between atoms: _192  and  _193
REMARK   78  A    between atoms: _192  and  _195
REMARK   79  A    between atoms: _199  and  _200
REMARK   80  A    between atoms: _205  and  _207
REMARK   81  A    between atoms: _207  and  _208
REMARK   82  A    between atoms: _210  and  _212
REMARK   83  A    between atoms: _212  and  _213
REMARK   84  A    between atoms: _212  and  _215
REMARK   85  A    between atoms: _213  and  _214
REMARK   86  A    between atoms: _213  and  _219
REMARK   87  A    between atoms: _214  and  CA_260
REMARK   88  A    between atoms: _215  and  _216
REMARK   89  A    between atoms: _219  and  _221
REMARK   90  A    between atoms: _221  and  _222
REMARK   91  A    between atoms: _221  and  _224
REMARK   92  A    between atoms: _224  and  _225
REMARK   93  A    between atoms: _230  and  _231
REMARK   94  A    between atoms: _233  and  _235
REMARK   95  A    between atoms: _235  and  _236
REMARK   96  A    between atoms: _238  and  _240
REMARK   97  A    between atoms: _240  and  _241
REMARK   98  A    between atoms: _240  and  _243
REMARK   99  A    between atoms: _243  and  _244
REMARK  100  A    between atoms: _249  and  _251
REMARK  101  A    between atoms: _251  and  _252
REMARK  102  A    between atoms: _251  and  _254
REMARK  103  A    between atoms: _254  and  _255
REMARK                            x       y       z     vdW  Elec       q    Type
REMARK                         _______ _______ _______ _____ _____    ______ ____
ROOT
ATOM      1  O   HOH     1      10.184  15.028  34.691  0.00  0.00    +0.000 OA
ENDROOT
TORSDOF 0
