REMARK  Name = ../refined-set-2016/3gk1/3gk1_pocket.pdb
REMARK  94 active torsions:
REMARK  status: ('A' for Active; 'I' for Inactive)
REMARK    1  A    between atoms: _1  and  _3
REMARK    2  A    between atoms: _3  and  _4
REMARK    3  A    between atoms: _3  and  _6
REMARK    4  A    between atoms: _6  and  _7
REMARK    5  A    between atoms: _10  and  _12
REMARK    6  A    between atoms: _12  and  _13
REMARK    7  A    between atoms: _12  and  _15
REMARK    8  A    between atoms: _15  and  _16
REMARK    9  A    between atoms: _18  and  _20
REMARK   10  A    between atoms: _20  and  _21
REMARK   11  A    between atoms: _20  and  _23
REMARK   12  A    between atoms: _23  and  _24
REMARK   13  A    between atoms: _29  and  _31
REMARK   14  A    between atoms: _31  and  _32
REMARK   15  A    between atoms: _31  and  _34
REMARK   16  A    between atoms: _34  and  _35
REMARK   17  A    between atoms: _41  and  _43
REMARK   18  A    between atoms: _43  and  _44
REMARK   19  A    between atoms: _43  and  _46
REMARK   20  A    between atoms: _46  and  _47
REMARK   21  A    between atoms: _50  and  _52
REMARK   22  A    between atoms: _52  and  _53
REMARK   23  A    between atoms: _52  and  _55
REMARK   24  A    between atoms: _55  and  _56
REMARK   25  A    between atoms: _56  and  _57
REMARK   26  A    between atoms: _60  and  _62
REMARK   27  A    between atoms: _62  and  _63
REMARK   28  A    between atoms: _62  and  _65
REMARK   29  A    between atoms: _65  and  _66
REMARK   30  A    between atoms: _69  and  _71
REMARK   31  A    between atoms: _71  and  _72
REMARK   32  A    between atoms: _71  and  _74
REMARK   33  A    between atoms: _74  and  _75
REMARK   34  A    between atoms: _78  and  _80
REMARK   35  A    between atoms: _80  and  _81
REMARK   36  A    between atoms: _84  and  _86
REMARK   37  A    between atoms: _86  and  _87
REMARK   38  A    between atoms: _86  and  _89
REMARK   39  A    between atoms: _89  and  _90
REMARK   40  A    between atoms: _96  and  _98
REMARK   41  A    between atoms: _98  and  _99
REMARK   42  A    between atoms: _98  and  _101
REMARK   43  A    between atoms: _104  and  _106
REMARK   44  A    between atoms: _106  and  _107
REMARK   45  A    between atoms: _110  and  _112
REMARK   46  A    between atoms: _112  and  _113
REMARK   47  A    between atoms: _112  and  _115
REMARK   48  A    between atoms: _115  and  _116
REMARK   49  A    between atoms: _116  and  _117
REMARK   50  A    between atoms: _119  and  _121
REMARK   51  A    between atoms: _121  and  _122
REMARK   52  A    between atoms: _121  and  _124
REMARK   53  A    between atoms: _124  and  _125
REMARK   54  A    between atoms: _128  and  _130
REMARK   55  A    between atoms: _130  and  _131
REMARK   56  A    between atoms: _130  and  _133
REMARK   57  A    between atoms: _133  and  _134
REMARK   58  A    between atoms: _137  and  _139
REMARK   59  A    between atoms: _139  and  _140
REMARK   60  A    between atoms: _139  and  _142
REMARK   61  A    between atoms: _142  and  _143
REMARK   62  A    between atoms: _146  and  _148
REMARK   63  A    between atoms: _148  and  _149
REMARK   64  A    between atoms: _152  and  _154
REMARK   65  A    between atoms: _154  and  _155
REMARK   66  A    between atoms: _154  and  _157
REMARK   67  A    between atoms: _159  and  _161
REMARK   68  A    between atoms: _161  and  _162
REMARK   69  A    between atoms: _161  and  _164
REMARK   70  A    between atoms: _164  and  _165
REMARK   71  A    between atoms: _170  and  _172
REMARK   72  A    between atoms: _172  and  _173
REMARK   73  A    between atoms: _172  and  _175
REMARK   74  A    between atoms: _175  and  _176
REMARK   75  A    between atoms: _176  and  _177
REMARK   76  A    between atoms: _180  and  _182
REMARK   77  A    between atoms: _182  and  _183
REMARK   78  A    between atoms: _182  and  _185
REMARK   79  A    between atoms: _185  and  _186
REMARK   80  A    between atoms: _192  and  _194
REMARK   81  A    between atoms: _194  and  _195
REMARK   82  A    between atoms: _194  and  _197
REMARK   83  A    between atoms: _197  and  _198
REMARK   84  A    between atoms: _204  and  _206
REMARK   85  A    between atoms: _206  and  _207
REMARK   86  A    between atoms: _206  and  _209
REMARK   87  A    between atoms: _209  and  _210
REMARK   88  A    between atoms: _210  and  _211
REMARK   89  A    between atoms: _214  and  _216
REMARK   90  A    between atoms: _216  and  _217
REMARK   91  A    between atoms: _216  and  _219
REMARK   92  A    between atoms: _222  and  _224
REMARK   93  A    between atoms: _224  and  _225
REMARK   94  A    between atoms: _224  and  _227
REMARK                            x       y       z     vdW  Elec       q    Type
REMARK                         _______ _______ _______ _____ _____    ______ ____
ROOT
ATOM      1  C   HIS A   3       0.156  10.223  11.122  0.00  0.00    +0.241 C 
ATOM      2  O   HIS A   3       0.319   9.875  12.295  0.00  0.00    -0.273 OA
ATOM      3  N   PHE A   4       1.102  10.127  10.205  0.00  0.00    -0.297 N 
ATOM      4  H   PHE A   4       0.908  10.467   9.241  0.00  0.00    +0.150 HD
ENDROOT
BRANCH   3   5
ATOM      5  CA  PHE A   4       2.418   9.555  10.508  0.00  0.00    +0.153 C 
BRANCH   5   6
ATOM      6  C   PHE A   4       3.464  10.631  10.763  0.00  0.00    +0.241 C 
ATOM      7  O   PHE A   4       4.384  10.426  11.556  0.00  0.00    -0.273 OA
ATOM      8  N   LEU A   5       3.332  11.773  10.092  0.00  0.00    -0.297 N 
ATOM      9  H   LEU A   5       2.485  11.929   9.509  0.00  0.00    +0.150 HD
BRANCH   8  10
ATOM     10  CA  LEU A   5       4.369  12.822  10.163  0.00  0.00    +0.149 C 
BRANCH  10  11
ATOM     11  C   LEU A   5       3.783  14.153  10.553  0.00  0.00    +0.241 C 
ATOM     12  N   GLU A   6       4.568  14.972  11.259  0.00  0.00    -0.298 N 
ATOM     13  H   GLU A   6       5.502  14.627  11.560  0.00  0.00    +0.150 HD
ATOM     14  O   LEU A   5       2.652  14.444  10.201  0.00  0.00    -0.273 OA
BRANCH  12  15
ATOM     15  CA  GLU A   6       4.174  16.337  11.630  0.00  0.00    +0.137 C 
BRANCH  15  16
ATOM     16  C   GLU A   6       4.068  17.206  10.371  0.00  0.00    +0.227 C 
ATOM     17  O   GLU A   6       4.931  17.151   9.508  0.00  0.00    -0.286 OA
ENDBRANCH  15  16
BRANCH  15  18
ATOM     18  CB  GLU A   6       5.229  16.916  12.574  0.00  0.00    +0.039 C 
BRANCH  18  19
ATOM     19  CG  GLU A   6       4.769  18.031  13.458  0.00  0.00    +0.116 C 
BRANCH  19  20
ATOM     20  CD  GLU A   6       5.661  18.186  14.701  0.00  0.00    +0.365 C 
ATOM     21  OE2 GLU A   6       5.107  18.224  15.832  0.00  0.00    -0.246 OA
ATOM     22  OE1 GLU A   6       6.909  18.271  14.534  0.00  0.00    -0.246 OA
ENDBRANCH  19  20
ENDBRANCH  18  19
ENDBRANCH  15  18
ENDBRANCH  12  15
ENDBRANCH  10  11
BRANCH  10  23
ATOM     23  CB  LEU A   5       5.094  12.966   8.815  0.00  0.00    +0.029 C 
BRANCH  23  24
ATOM     24  CG  LEU A   5       5.896  11.758   8.310  0.00  0.00    +0.002 C 
ATOM     25  CD2 LEU A   5       6.966  11.325   9.281  0.00  0.00    +0.000 C 
ATOM     26  CD1 LEU A   5       6.509  12.071   6.971  0.00  0.00    +0.000 C 
ENDBRANCH  23  24
ENDBRANCH  10  23
ENDBRANCH   8  10
ENDBRANCH   5   6
BRANCH   5  27
ATOM     27  CB  PHE A   4       2.890   8.619   9.374  0.00  0.00    +0.055 C 
BRANCH  27  28
ATOM     28  CG  PHE A   4       2.101   7.304   9.277  0.00  0.00    -0.020 A 
ATOM     29  CD2 PHE A   4       1.376   6.823  10.340  0.00  0.00    -0.004 A 
ATOM     30  CE2 PHE A   4       0.668   5.621  10.243  0.00  0.00    -0.000 A 
ATOM     31  CZ  PHE A   4       0.700   4.893   9.092  0.00  0.00    -0.000 A 
ATOM     32  CE1 PHE A   4       1.426   5.336   8.047  0.00  0.00    -0.000 A 
ATOM     33  CD1 PHE A   4       2.139   6.542   8.136  0.00  0.00    -0.004 A 
ENDBRANCH  27  28
ENDBRANCH   5  27
ENDBRANCH   3   5
BRANCH   1  34
ATOM     34  CA  HIS A   3      -1.187  10.777  10.666  0.00  0.00    +0.155 C 
BRANCH  34  37
ATOM     35  C   SER A   2      -1.042  12.876   9.473  0.00  0.00    +0.243 C 
ATOM     36  O   SER A   2      -1.161  13.484  10.522  0.00  0.00    -0.273 OA
ATOM     37  N   HIS A   3      -1.093  11.546   9.417  0.00  0.00    -0.297 N 
ATOM     38  H   HIS A   3      -1.067  11.057   8.499  0.00  0.00    +0.150 HD
BRANCH  35  39
ATOM     39  CA  SER A   2      -0.871  13.643   8.175  0.00  0.00    +0.178 C 
BRANCH  39  42
ATOM     40  C   LEU A   1       0.658  12.215   6.906  0.00  0.00    +0.238 C 
ATOM     41  O   LEU A   1       1.460  12.160   7.837  0.00  0.00    -0.274 OA
ATOM     42  N   SER A   2      -0.527  12.816   7.008  0.00  0.00    -0.295 N 
ATOM     43  H   SER A   2      -1.224  12.698   6.245  0.00  0.00    +0.150 HD
BRANCH  40  44
ATOM     44  CA  LEU A   1       0.960  11.519   5.577  0.00  0.00    +0.145 C 
BRANCH  44  45
ATOM     45  N   LEU A   1       0.340  12.199   4.419  0.00  0.00    -0.238 NA
ATOM     46  H   LEU A   1       0.468  13.223   4.289  0.00  0.00    +0.142 HD
ENDBRANCH  44  45
BRANCH  44  47
ATOM     47  CB  LEU A   1       2.487  11.318   5.389  0.00  0.00    +0.026 C 
BRANCH  47  48
ATOM     48  CG  LEU A   1       2.990  10.349   4.309  0.00  0.00    +0.002 C 
ATOM     49  CD2 LEU A   1       2.866   8.891   4.778  0.00  0.00    +0.000 C 
ATOM     50  CD1 LEU A   1       4.438  10.667   3.887  0.00  0.00    +0.000 C 
ENDBRANCH  47  48
ENDBRANCH  44  47
ENDBRANCH  40  44
ENDBRANCH  39  42
BRANCH  39  51
ATOM     51  CB  SER A   2      -2.136  14.457   7.926  0.00  0.00    +0.166 C 
BRANCH  51  52
ATOM     52  OG  SER A   2      -3.184  13.611   7.513  0.00  0.00    -0.380 OA
ATOM     53  H   SER A   2      -2.924  13.150   6.676  0.00  0.00    +0.211 HD
ENDBRANCH  51  52
ENDBRANCH  39  51
ENDBRANCH  35  39
ENDBRANCH  34  37
BRANCH  34  54
ATOM     54  CB  HIS A   3      -2.202   9.633  10.572  0.00  0.00    +0.076 C 
BRANCH  54  55
ATOM     55  CG  HIS A   3      -3.580  10.076  10.203  0.00  0.00    +0.082 A 
ATOM     56  CD2 HIS A   3      -4.517  10.761  10.902  0.00  0.00    +0.115 A 
ATOM     57  NE2 HIS A   3      -5.604  10.916  10.077  0.00  0.00    -0.221 NA
ATOM     58  CE1 HIS A   3      -5.342  10.350   8.911  0.00  0.00    +0.199 A 
ATOM     59  ND1 HIS A   3      -4.123   9.844   8.959  0.00  0.00    -0.227 NA
ENDBRANCH  54  55
ENDBRANCH  34  54
ENDBRANCH   1  34
TORSDOF 25
REMARK  Name = ../refined-set-2016/3gk1/3gk1_pocket.pdb
REMARK  94 active torsions:
REMARK  status: ('A' for Active; 'I' for Inactive)
REMARK    1  A    between atoms: _1  and  _3
REMARK    2  A    between atoms: _3  and  _4
REMARK    3  A    between atoms: _3  and  _6
REMARK    4  A    between atoms: _6  and  _7
REMARK    5  A    between atoms: _10  and  _12
REMARK    6  A    between atoms: _12  and  _13
REMARK    7  A    between atoms: _12  and  _15
REMARK    8  A    between atoms: _15  and  _16
REMARK    9  A    between atoms: _18  and  _20
REMARK   10  A    between atoms: _20  and  _21
REMARK   11  A    between atoms: _20  and  _23
REMARK   12  A    between atoms: _23  and  _24
REMARK   13  A    between atoms: _29  and  _31
REMARK   14  A    between atoms: _31  and  _32
REMARK   15  A    between atoms: _31  and  _34
REMARK   16  A    between atoms: _34  and  _35
REMARK   17  A    between atoms: _41  and  _43
REMARK   18  A    between atoms: _43  and  _44
REMARK   19  A    between atoms: _43  and  _46
REMARK   20  A    between atoms: _46  and  _47
REMARK   21  A    between atoms: _50  and  _52
REMARK   22  A    between atoms: _52  and  _53
REMARK   23  A    between atoms: _52  and  _55
REMARK   24  A    between atoms: _55  and  _56
REMARK   25  A    between atoms: _56  and  _57
REMARK   26  A    between atoms: _60  and  _62
REMARK   27  A    between atoms: _62  and  _63
REMARK   28  A    between atoms: _62  and  _65
REMARK   29  A    between atoms: _65  and  _66
REMARK   30  A    between atoms: _69  and  _71
REMARK   31  A    between atoms: _71  and  _72
REMARK   32  A    between atoms: _71  and  _74
REMARK   33  A    between atoms: _74  and  _75
REMARK   34  A    between atoms: _78  and  _80
REMARK   35  A    between atoms: _80  and  _81
REMARK   36  A    between atoms: _84  and  _86
REMARK   37  A    between atoms: _86  and  _87
REMARK   38  A    between atoms: _86  and  _89
REMARK   39  A    between atoms: _89  and  _90
REMARK   40  A    between atoms: _96  and  _98
REMARK   41  A    between atoms: _98  and  _99
REMARK   42  A    between atoms: _98  and  _101
REMARK   43  A    between atoms: _104  and  _106
REMARK   44  A    between atoms: _106  and  _107
REMARK   45  A    between atoms: _110  and  _112
REMARK   46  A    between atoms: _112  and  _113
REMARK   47  A    between atoms: _112  and  _115
REMARK   48  A    between atoms: _115  and  _116
REMARK   49  A    between atoms: _116  and  _117
REMARK   50  A    between atoms: _119  and  _121
REMARK   51  A    between atoms: _121  and  _122
REMARK   52  A    between atoms: _121  and  _124
REMARK   53  A    between atoms: _124  and  _125
REMARK   54  A    between atoms: _128  and  _130
REMARK   55  A    between atoms: _130  and  _131
REMARK   56  A    between atoms: _130  and  _133
REMARK   57  A    between atoms: _133  and  _134
REMARK   58  A    between atoms: _137  and  _139
REMARK   59  A    between atoms: _139  and  _140
REMARK   60  A    between atoms: _139  and  _142
REMARK   61  A    between atoms: _142  and  _143
REMARK   62  A    between atoms: _146  and  _148
REMARK   63  A    between atoms: _148  and  _149
REMARK   64  A    between atoms: _152  and  _154
REMARK   65  A    between atoms: _154  and  _155
REMARK   66  A    between atoms: _154  and  _157
REMARK   67  A    between atoms: _159  and  _161
REMARK   68  A    between atoms: _161  and  _162
REMARK   69  A    between atoms: _161  and  _164
REMARK   70  A    between atoms: _164  and  _165
REMARK   71  A    between atoms: _170  and  _172
REMARK   72  A    between atoms: _172  and  _173
REMARK   73  A    between atoms: _172  and  _175
REMARK   74  A    between atoms: _175  and  _176
REMARK   75  A    between atoms: _176  and  _177
REMARK   76  A    between atoms: _180  and  _182
REMARK   77  A    between atoms: _182  and  _183
REMARK   78  A    between atoms: _182  and  _185
REMARK   79  A    between atoms: _185  and  _186
REMARK   80  A    between atoms: _192  and  _194
REMARK   81  A    between atoms: _194  and  _195
REMARK   82  A    between atoms: _194  and  _197
REMARK   83  A    between atoms: _197  and  _198
REMARK   84  A    between atoms: _204  and  _206
REMARK   85  A    between atoms: _206  and  _207
REMARK   86  A    between atoms: _206  and  _209
REMARK   87  A    between atoms: _209  and  _210
REMARK   88  A    between atoms: _210  and  _211
REMARK   89  A    between atoms: _214  and  _216
REMARK   90  A    between atoms: _216  and  _217
REMARK   91  A    between atoms: _216  and  _219
REMARK   92  A    between atoms: _222  and  _224
REMARK   93  A    between atoms: _224  and  _225
REMARK   94  A    between atoms: _224  and  _227
REMARK                            x       y       z     vdW  Elec       q    Type
REMARK                         _______ _______ _______ _____ _____    ______ ____
ROOT
ATOM      1  C   THR A   1      17.479  12.387   2.785  0.00  0.00    +0.241 C 
ATOM      2  O   THR A   1      18.106  11.325   2.714  0.00  0.00    -0.274 OA
ATOM      3  N   LEU A   2      16.457  12.680   1.980  0.00  0.00    -0.298 N 
ATOM      4  H   LEU A   2      16.015  13.620   2.040  0.00  0.00    +0.150 HD
ENDROOT
BRANCH   1   5
ATOM      5  CA  THR A   1      17.875  13.443   3.821  0.00  0.00    +0.172 C 
BRANCH   5   6
ATOM      6  N   THR A   1      17.860  14.804   3.297  0.00  0.00    -0.236 NA
ATOM      7  H   THR A   1      17.116  15.451   3.629  0.00  0.00    +0.142 HD
ENDBRANCH   5   6
BRANCH   5   8
ATOM      8  CB  THR A   1      16.936  13.360   5.035  0.00  0.00    +0.135 C 
ATOM      9  CG2 THR A   1      16.940  11.961   5.648  0.00  0.00    +0.034 C 
BRANCH   8  10
ATOM     10  OG1 THR A   1      17.391  14.316   6.010  0.00  0.00    -0.383 OA
ATOM     11  HG1 THR A   1      17.365  15.224   5.617  0.00  0.00    +0.210 HD
ENDBRANCH   8  10
ENDBRANCH   5   8
ENDBRANCH   1   5
BRANCH   3  12
ATOM     12  CA  LEU A   2      15.946  11.713   1.018  0.00  0.00    +0.137 C 
BRANCH  12  13
ATOM     13  C   LEU A   2      16.777  11.633  -0.280  0.00  0.00    +0.227 C 
ATOM     14  O   LEU A   2      16.741  10.619  -1.002  0.00  0.00    -0.286 OA
ENDBRANCH  12  13
BRANCH  12  15
ATOM     15  CB  LEU A   2      14.479  12.029   0.695  0.00  0.00    +0.028 C 
BRANCH  15  16
ATOM     16  CG  LEU A   2      13.484  11.948   1.854  0.00  0.00    +0.002 C 
ATOM     17  CD2 LEU A   2      13.707  10.689   2.675  0.00  0.00    +0.000 C 
ATOM     18  CD1 LEU A   2      12.053  11.998   1.337  0.00  0.00    +0.000 C 
ENDBRANCH  15  16
ENDBRANCH  12  15
ENDBRANCH   3  12
TORSDOF 8
REMARK  Name = ../refined-set-2016/3gk1/3gk1_pocket.pdb
REMARK  94 active torsions:
REMARK  status: ('A' for Active; 'I' for Inactive)
REMARK    1  A    between atoms: _1  and  _3
REMARK    2  A    between atoms: _3  and  _4
REMARK    3  A    between atoms: _3  and  _6
REMARK    4  A    between atoms: _6  and  _7
REMARK    5  A    between atoms: _10  and  _12
REMARK    6  A    between atoms: _12  and  _13
REMARK    7  A    between atoms: _12  and  _15
REMARK    8  A    between atoms: _15  and  _16
REMARK    9  A    between atoms: _18  and  _20
REMARK   10  A    between atoms: _20  and  _21
REMARK   11  A    between atoms: _20  and  _23
REMARK   12  A    between atoms: _23  and  _24
REMARK   13  A    between atoms: _29  and  _31
REMARK   14  A    between atoms: _31  and  _32
REMARK   15  A    between atoms: _31  and  _34
REMARK   16  A    between atoms: _34  and  _35
REMARK   17  A    between atoms: _41  and  _43
REMARK   18  A    between atoms: _43  and  _44
REMARK   19  A    between atoms: _43  and  _46
REMARK   20  A    between atoms: _46  and  _47
REMARK   21  A    between atoms: _50  and  _52
REMARK   22  A    between atoms: _52  and  _53
REMARK   23  A    between atoms: _52  and  _55
REMARK   24  A    between atoms: _55  and  _56
REMARK   25  A    between atoms: _56  and  _57
REMARK   26  A    between atoms: _60  and  _62
REMARK   27  A    between atoms: _62  and  _63
REMARK   28  A    between atoms: _62  and  _65
REMARK   29  A    between atoms: _65  and  _66
REMARK   30  A    between atoms: _69  and  _71
REMARK   31  A    between atoms: _71  and  _72
REMARK   32  A    between atoms: _71  and  _74
REMARK   33  A    between atoms: _74  and  _75
REMARK   34  A    between atoms: _78  and  _80
REMARK   35  A    between atoms: _80  and  _81
REMARK   36  A    between atoms: _84  and  _86
REMARK   37  A    between atoms: _86  and  _87
REMARK   38  A    between atoms: _86  and  _89
REMARK   39  A    between atoms: _89  and  _90
REMARK   40  A    between atoms: _96  and  _98
REMARK   41  A    between atoms: _98  and  _99
REMARK   42  A    between atoms: _98  and  _101
REMARK   43  A    between atoms: _104  and  _106
REMARK   44  A    between atoms: _106  and  _107
REMARK   45  A    between atoms: _110  and  _112
REMARK   46  A    between atoms: _112  and  _113
REMARK   47  A    between atoms: _112  and  _115
REMARK   48  A    between atoms: _115  and  _116
REMARK   49  A    between atoms: _116  and  _117
REMARK   50  A    between atoms: _119  and  _121
REMARK   51  A    between atoms: _121  and  _122
REMARK   52  A    between atoms: _121  and  _124
REMARK   53  A    between atoms: _124  and  _125
REMARK   54  A    between atoms: _128  and  _130
REMARK   55  A    between atoms: _130  and  _131
REMARK   56  A    between atoms: _130  and  _133
REMARK   57  A    between atoms: _133  and  _134
REMARK   58  A    between atoms: _137  and  _139
REMARK   59  A    between atoms: _139  and  _140
REMARK   60  A    between atoms: _139  and  _142
REMARK   61  A    between atoms: _142  and  _143
REMARK   62  A    between atoms: _146  and  _148
REMARK   63  A    between atoms: _148  and  _149
REMARK   64  A    between atoms: _152  and  _154
REMARK   65  A    between atoms: _154  and  _155
REMARK   66  A    between atoms: _154  and  _157
REMARK   67  A    between atoms: _159  and  _161
REMARK   68  A    between atoms: _161  and  _162
REMARK   69  A    between atoms: _161  and  _164
REMARK   70  A    between atoms: _164  and  _165
REMARK   71  A    between atoms: _170  and  _172
REMARK   72  A    between atoms: _172  and  _173
REMARK   73  A    between atoms: _172  and  _175
REMARK   74  A    between atoms: _175  and  _176
REMARK   75  A    between atoms: _176  and  _177
REMARK   76  A    between atoms: _180  and  _182
REMARK   77  A    between atoms: _182  and  _183
REMARK   78  A    between atoms: _182  and  _185
REMARK   79  A    between atoms: _185  and  _186
REMARK   80  A    between atoms: _192  and  _194
REMARK   81  A    between atoms: _194  and  _195
REMARK   82  A    between atoms: _194  and  _197
REMARK   83  A    between atoms: _197  and  _198
REMARK   84  A    between atoms: _204  and  _206
REMARK   85  A    between atoms: _206  and  _207
REMARK   86  A    between atoms: _206  and  _209
REMARK   87  A    between atoms: _209  and  _210
REMARK   88  A    between atoms: _210  and  _211
REMARK   89  A    between atoms: _214  and  _216
REMARK   90  A    between atoms: _216  and  _217
REMARK   91  A    between atoms: _216  and  _219
REMARK   92  A    between atoms: _222  and  _224
REMARK   93  A    between atoms: _224  and  _225
REMARK   94  A    between atoms: _224  and  _227
REMARK                            x       y       z     vdW  Elec       q    Type
REMARK                         _______ _______ _______ _____ _____    ______ ____
ROOT
ATOM      1  CA  THR A   8       9.776   0.444   9.574  0.00  0.00    +0.176 C 
ENDROOT
BRANCH   1   2
ATOM      2  C   THR A   8       9.506   1.156  10.892  0.00  0.00    +0.243 C 
ATOM      3  O   THR A   8       9.375   0.489  11.909  0.00  0.00    -0.273 OA
ATOM      4  N   ALA A   9       9.426   2.492  10.869  0.00  0.00    -0.297 N 
ATOM      5  H   ALA A   9       9.570   2.986   9.965  0.00  0.00    +0.150 HD
BRANCH   4   6
ATOM      6  CA  ALA A   9       9.141   3.290  12.076  0.00  0.00    +0.149 C 
ATOM      7  CB  ALA A   9       9.221   4.780  11.757  0.00  0.00    +0.031 C 
BRANCH   6   8
ATOM      8  C   ALA A   9       7.765   2.937  12.651  0.00  0.00    +0.241 C 
ATOM      9  O   ALA A   9       7.608   2.739  13.850  0.00  0.00    -0.273 OA
ATOM     10  N   CYS A  10       6.769   2.848  11.772  0.00  0.00    -0.296 N 
ATOM     11  H   CYS A  10       6.943   3.095  10.777  0.00  0.00    +0.150 HD
BRANCH  10  12
ATOM     12  CA  CYS A  10       5.441   2.412  12.178  0.00  0.00    +0.160 C 
BRANCH  12  13
ATOM     13  C   CYS A  10       5.447   0.931  12.631  0.00  0.00    +0.242 C 
ATOM     14  O   CYS A  10       4.849   0.578  13.679  0.00  0.00    -0.273 OA
ATOM     15  N   HIS A  11       6.163   0.078  11.891  0.00  0.00    -0.297 N 
ATOM     16  H   HIS A  11       6.666   0.435  11.054  0.00  0.00    +0.150 HD
BRANCH  15  17
ATOM     17  CA  HIS A  11       6.260  -1.351  12.227  0.00  0.00    +0.155 C 
BRANCH  17  18
ATOM     18  C   HIS A  11       6.744  -1.627  13.641  0.00  0.00    +0.241 C 
ATOM     19  O   HIS A  11       6.329  -2.613  14.295  0.00  0.00    -0.273 OA
ATOM     20  N   GLU A  12       7.642  -0.789  14.128  0.00  0.00    -0.297 N 
ATOM     21  H   GLU A  12       7.930   0.057  13.596  0.00  0.00    +0.150 HD
BRANCH  20  22
ATOM     22  CA  GLU A  12       8.212  -1.085  15.425  0.00  0.00    +0.149 C 
BRANCH  22  23
ATOM     23  C   GLU A  12       7.752  -0.190  16.557  0.00  0.00    +0.241 C 
ATOM     24  O   GLU A  12       8.155  -0.398  17.702  0.00  0.00    -0.273 OA
ATOM     25  N   PHE A  13       6.924   0.802  16.237  0.00  0.00    -0.297 N 
ATOM     26  H   PHE A  13       6.819   1.078  15.240  0.00  0.00    +0.150 HD
BRANCH  25  27
ATOM     27  CA  PHE A  13       6.163   1.508  17.258  0.00  0.00    +0.153 C 
BRANCH  27  28
ATOM     28  C   PHE A  13       5.288   0.480  17.991  0.00  0.00    +0.241 C 
ATOM     29  O   PHE A  13       5.026   0.611  19.192  0.00  0.00    -0.273 OA
ATOM     30  N   PHE A  14       4.892  -0.568  17.267  0.00  0.00    -0.298 N 
ATOM     31  H   PHE A  14       5.295  -0.689  16.316  0.00  0.00    +0.150 HD
BRANCH  30  32
ATOM     32  CA  PHE A  14       3.915  -1.563  17.740  0.00  0.00    +0.141 C 
BRANCH  32  33
ATOM     33  C   PHE A  14       4.518  -2.924  18.064  0.00  0.00    +0.227 C 
ATOM     34  O   PHE A  14       5.608  -3.249  17.593  0.00  0.00    -0.286 OA
ENDBRANCH  32  33
BRANCH  32  35
ATOM     35  CB  PHE A  14       2.783  -1.693  16.704  0.00  0.00    +0.054 C 
BRANCH  35  36
ATOM     36  CG  PHE A  14       1.982  -0.445  16.577  0.00  0.00    -0.020 A 
ATOM     37  CD2 PHE A  14       0.840  -0.267  17.352  0.00  0.00    -0.004 A 
ATOM     38  CE2 PHE A  14       0.123   0.910  17.287  0.00  0.00    -0.000 A 
ATOM     39  CZ  PHE A  14       0.546   1.932  16.460  0.00  0.00    -0.000 A 
ATOM     40  CE1 PHE A  14       1.702   1.771  15.689  0.00  0.00    -0.000 A 
ATOM     41  CD1 PHE A  14       2.416   0.588  15.769  0.00  0.00    -0.004 A 
ENDBRANCH  35  36
ENDBRANCH  32  35
ENDBRANCH  30  32
ENDBRANCH  27  28
BRANCH  27  42
ATOM     42  CB  PHE A  13       5.293   2.611  16.632  0.00  0.00    +0.055 C 
BRANCH  42  43
ATOM     43  CG  PHE A  13       4.567   3.457  17.653  0.00  0.00    -0.020 A 
ATOM     44  CD2 PHE A  13       5.174   4.603  18.186  0.00  0.00    -0.004 A 
ATOM     45  CE2 PHE A  13       4.518   5.384  19.137  0.00  0.00    -0.000 A 
ATOM     46  CZ  PHE A  13       3.237   5.009  19.583  0.00  0.00    -0.000 A 
ATOM     47  CE1 PHE A  13       2.625   3.859  19.057  0.00  0.00    -0.000 A 
ATOM     48  CD1 PHE A  13       3.294   3.090  18.108  0.00  0.00    -0.004 A 
ENDBRANCH  42  43
ENDBRANCH  27  42
ENDBRANCH  25  27
ENDBRANCH  22  23
BRANCH  22  49
ATOM     49  CB  GLU A  12       9.736  -1.178  15.364  0.00  0.00    +0.041 C 
BRANCH  49  50
ATOM     50  CG  GLU A  12      10.438  -0.027  14.702  0.00  0.00    +0.116 C 
BRANCH  50  51
ATOM     51  CD  GLU A  12      11.895  -0.373  14.410  0.00  0.00    +0.365 C 
ATOM     52  OE2 GLU A  12      12.772   0.504  14.630  0.00  0.00    -0.246 OA
ATOM     53  OE1 GLU A  12      12.160  -1.529  13.976  0.00  0.00    -0.246 OA
ENDBRANCH  50  51
ENDBRANCH  49  50
ENDBRANCH  22  49
ENDBRANCH  20  22
ENDBRANCH  17  18
BRANCH  17  54
ATOM     54  CB  HIS A  11       7.182  -2.072  11.243  0.00  0.00    +0.076 C 
BRANCH  54  55
ATOM     55  CG  HIS A  11       7.472  -3.495  11.612  0.00  0.00    +0.082 A 
ATOM     56  ND1 HIS A  11       8.737  -3.938  11.943  0.00  0.00    -0.227 NA
ATOM     57  CE1 HIS A  11       8.693  -5.229  12.220  0.00  0.00    +0.199 A 
ATOM     58  NE2 HIS A  11       7.445  -5.640  12.088  0.00  0.00    -0.221 NA
ATOM     59  CD2 HIS A  11       6.660  -4.575  11.710  0.00  0.00    +0.115 A 
ENDBRANCH  54  55
ENDBRANCH  17  54
ENDBRANCH  15  17
ENDBRANCH  12  13
BRANCH  12  60
ATOM     60  CB  CYS A  10       4.427   2.697  11.061  0.00  0.00    +0.098 C 
ATOM     61  SG  CYS A  10       2.763   2.269  11.537  0.00  0.00    -0.080 S 
ENDBRANCH  12  60
ENDBRANCH  10  12
ENDBRANCH   6   8
ENDBRANCH   4   6
ENDBRANCH   1   2
BRANCH   1  64
ATOM     62  C   THR A   7       7.650   0.935   8.553  0.00  0.00    +0.243 C 
ATOM     63  O   THR A   7       7.048   0.313   9.454  0.00  0.00    -0.273 OA
ATOM     64  N   THR A   8       8.970   1.044   8.521  0.00  0.00    -0.295 N 
ATOM     65  H   THR A   8       9.430   1.558   7.743  0.00  0.00    +0.150 HD
BRANCH  62  66
ATOM     66  CA  THR A   7       6.890   1.633   7.427  0.00  0.00    +0.176 C 
BRANCH  66  69
ATOM     67  C   ILE A   6       7.454   3.936   8.046  0.00  0.00    +0.241 C 
ATOM     68  O   ILE A   6       6.958   3.822   9.176  0.00  0.00    -0.273 OA
ATOM     69  N   THR A   7       7.432   2.973   7.131  0.00  0.00    -0.295 N 
ATOM     70  H   THR A   7       7.807   3.169   6.181  0.00  0.00    +0.150 HD
BRANCH  67  71
ATOM     71  CA  ILE A   6       8.102   5.247   7.593  0.00  0.00    +0.149 C 
BRANCH  71  74
ATOM     72  C   MET A   5      10.405   4.467   7.431  0.00  0.00    +0.241 C 
ATOM     73  O   MET A   5      10.426   4.215   8.610  0.00  0.00    -0.273 OA
ATOM     74  N   ILE A   6       9.326   4.962   6.844  0.00  0.00    -0.297 N 
ATOM     75  H   ILE A   6       9.349   5.153   5.822  0.00  0.00    +0.150 HD
BRANCH  72  76
ATOM     76  CA  MET A   5      11.646   4.270   6.549  0.00  0.00    +0.149 C 
BRANCH  76  79
ATOM     77  C   ALA A   4      10.849   2.439   5.135  0.00  0.00    +0.241 C 
ATOM     78  O   ALA A   4      10.707   1.701   6.104  0.00  0.00    -0.273 OA
ATOM     79  N   MET A   5      11.328   3.678   5.241  0.00  0.00    -0.297 N 
ATOM     80  H   MET A   5      11.480   4.239   4.379  0.00  0.00    +0.150 HD
BRANCH  77  81
ATOM     81  CA  ALA A   4      10.512   1.918   3.735  0.00  0.00    +0.149 C 
ATOM     82  CB  ALA A   4      11.737   1.257   3.119  0.00  0.00    +0.031 C 
BRANCH  81  85
ATOM     83  C   VAL A   3       8.852   3.631   3.220  0.00  0.00    +0.241 C 
ATOM     84  O   VAL A   3       8.241   3.399   4.287  0.00  0.00    -0.273 OA
ATOM     85  N   ALA A   4       9.957   2.959   2.863  0.00  0.00    -0.297 N 
ATOM     86  H   ALA A   4      10.424   3.178   1.960  0.00  0.00    +0.150 HD
BRANCH  83  87
ATOM     87  CA  VAL A   3       8.337   4.731   2.273  0.00  0.00    +0.149 C 
BRANCH  87  90
ATOM     88  C   PHE A   2      10.176   6.261   2.770  0.00  0.00    +0.241 C 
ATOM     89  O   PHE A   2       9.940   6.188   3.976  0.00  0.00    -0.273 OA
ATOM     90  N   VAL A   3       9.421   5.644   1.869  0.00  0.00    -0.297 N 
ATOM     91  H   VAL A   3       9.598   5.808   0.857  0.00  0.00    +0.150 HD
BRANCH  88  92
ATOM     92  CA  PHE A   2      11.379   7.055   2.247  0.00  0.00    +0.153 C 
BRANCH  92  95
ATOM     93  C   ALA A   1      12.756   5.114   1.642  0.00  0.00    +0.238 C 
ATOM     94  O   ALA A   1      12.855   4.718   2.796  0.00  0.00    -0.274 OA
ATOM     95  N   PHE A   2      12.155   6.256   1.302  0.00  0.00    -0.297 N 
ATOM     96  H   PHE A   2      12.243   6.592   0.322  0.00  0.00    +0.150 HD
BRANCH  93  97
ATOM     97  CA  ALA A   1      13.388   4.328   0.524  0.00  0.00    +0.145 C 
ATOM     98  CB  ALA A   1      14.775   4.851   0.282  0.00  0.00    +0.028 C 
BRANCH  97  99
ATOM     99  N   ALA A   1      12.601   4.378  -0.723  0.00  0.00    -0.238 NA
ATOM    100  H   ALA A   1      12.994   4.870  -1.551  0.00  0.00    +0.142 HD
ENDBRANCH  97  99
ENDBRANCH  93  97
ENDBRANCH  92  95
BRANCH  92 101
ATOM    101  CB  PHE A   2      10.948   8.342   1.538  0.00  0.00    +0.055 C 
BRANCH 101 102
ATOM    102  CG  PHE A   2      10.095   9.257   2.354  0.00  0.00    -0.020 A 
ATOM    103  CD2 PHE A   2      10.407   9.551   3.670  0.00  0.00    -0.004 A 
ATOM    104  CE2 PHE A   2       9.597  10.435   4.439  0.00  0.00    -0.000 A 
ATOM    105  CZ  PHE A   2       8.509  11.060   3.847  0.00  0.00    -0.000 A 
ATOM    106  CE1 PHE A   2       8.194  10.787   2.513  0.00  0.00    -0.000 A 
ATOM    107  CD1 PHE A   2       9.010   9.887   1.768  0.00  0.00    -0.004 A 
ENDBRANCH 101 102
ENDBRANCH  92 101
ENDBRANCH  88  92
ENDBRANCH  87  90
BRANCH  87 108
ATOM    108  CB  VAL A   3       7.569   4.169   1.037  0.00  0.00    +0.027 C 
ATOM    109  CG2 VAL A   3       6.586   3.011   1.404  0.00  0.00    +0.002 C 
ATOM    110  CG1 VAL A   3       6.845   5.298   0.328  0.00  0.00    +0.002 C 
ENDBRANCH  87 108
ENDBRANCH  83  87
ENDBRANCH  81  85
ENDBRANCH  77  81
ENDBRANCH  76  79
BRANCH  76 111
ATOM    111  CB  MET A   5      12.285   5.642   6.368  0.00  0.00    +0.041 C 
BRANCH 111 112
ATOM    112  CG  MET A   5      13.721   5.693   5.922  0.00  0.00    +0.060 C 
BRANCH 112 113
ATOM    113  SD  MET A   5      14.040   7.472   5.565  0.00  0.00    -0.139 S 
ATOM    114  CE  MET A   5      15.403   7.452   4.340  0.00  0.00    +0.069 C 
ENDBRANCH 112 113
ENDBRANCH 111 112
ENDBRANCH  76 111
ENDBRANCH  72  76
ENDBRANCH  71  74
BRANCH  71 115
ATOM    115  CB  ILE A   6       7.114   6.036   6.717  0.00  0.00    +0.027 C 
ATOM    116  CG2 ILE A   6       5.722   6.158   7.404  0.00  0.00    +0.002 C 
BRANCH 115 117
ATOM    117  CG1 ILE A   6       7.684   7.405   6.390  0.00  0.00    +0.002 C 
ATOM    118  CD1 ILE A   6       7.013   7.993   5.171  0.00  0.00    +0.000 C 
ENDBRANCH 115 117
ENDBRANCH  71 115
ENDBRANCH  67  71
ENDBRANCH  66  69
BRANCH  66 119
ATOM    119  CB  THR A   7       6.870   0.769   6.158  0.00  0.00    +0.137 C 
ATOM    120  CG2 THR A   7       5.959  -0.439   6.338  0.00  0.00    +0.034 C 
BRANCH 119 121
ATOM    121  OG1 THR A   7       6.313   1.550   5.109  0.00  0.00    -0.382 OA
ATOM    122  HG1 THR A   7       6.870   2.356   4.968  0.00  0.00    +0.210 HD
ENDBRANCH 119 121
ENDBRANCH  66 119
ENDBRANCH  62  66
ENDBRANCH   1  64
BRANCH   1 123
ATOM    123  CB  THR A   8      11.295   0.472   9.262  0.00  0.00    +0.137 C 
ATOM    124  CG2 THR A   8      12.091  -0.357  10.288  0.00  0.00    +0.034 C 
BRANCH 123 125
ATOM    125  OG1 THR A   8      11.515  -0.038   7.944  0.00  0.00    -0.382 OA
ATOM    126  HG1 THR A   8      11.031   0.524   7.289  0.00  0.00    +0.210 HD
ENDBRANCH 123 125
ENDBRANCH   1 123
TORSDOF 50
REMARK  Name = ../refined-set-2016/3gk1/3gk1_pocket.pdb
REMARK  94 active torsions:
REMARK  status: ('A' for Active; 'I' for Inactive)
REMARK    1  A    between atoms: _1  and  _3
REMARK    2  A    between atoms: _3  and  _4
REMARK    3  A    between atoms: _3  and  _6
REMARK    4  A    between atoms: _6  and  _7
REMARK    5  A    between atoms: _10  and  _12
REMARK    6  A    between atoms: _12  and  _13
REMARK    7  A    between atoms: _12  and  _15
REMARK    8  A    between atoms: _15  and  _16
REMARK    9  A    between atoms: _18  and  _20
REMARK   10  A    between atoms: _20  and  _21
REMARK   11  A    between atoms: _20  and  _23
REMARK   12  A    between atoms: _23  and  _24
REMARK   13  A    between atoms: _29  and  _31
REMARK   14  A    between atoms: _31  and  _32
REMARK   15  A    between atoms: _31  and  _34
REMARK   16  A    between atoms: _34  and  _35
REMARK   17  A    between atoms: _41  and  _43
REMARK   18  A    between atoms: _43  and  _44
REMARK   19  A    between atoms: _43  and  _46
REMARK   20  A    between atoms: _46  and  _47
REMARK   21  A    between atoms: _50  and  _52
REMARK   22  A    between atoms: _52  and  _53
REMARK   23  A    between atoms: _52  and  _55
REMARK   24  A    between atoms: _55  and  _56
REMARK   25  A    between atoms: _56  and  _57
REMARK   26  A    between atoms: _60  and  _62
REMARK   27  A    between atoms: _62  and  _63
REMARK   28  A    between atoms: _62  and  _65
REMARK   29  A    between atoms: _65  and  _66
REMARK   30  A    between atoms: _69  and  _71
REMARK   31  A    between atoms: _71  and  _72
REMARK   32  A    between atoms: _71  and  _74
REMARK   33  A    between atoms: _74  and  _75
REMARK   34  A    between atoms: _78  and  _80
REMARK   35  A    between atoms: _80  and  _81
REMARK   36  A    between atoms: _84  and  _86
REMARK   37  A    between atoms: _86  and  _87
REMARK   38  A    between atoms: _86  and  _89
REMARK   39  A    between atoms: _89  and  _90
REMARK   40  A    between atoms: _96  and  _98
REMARK   41  A    between atoms: _98  and  _99
REMARK   42  A    between atoms: _98  and  _101
REMARK   43  A    between atoms: _104  and  _106
REMARK   44  A    between atoms: _106  and  _107
REMARK   45  A    between atoms: _110  and  _112
REMARK   46  A    between atoms: _112  and  _113
REMARK   47  A    between atoms: _112  and  _115
REMARK   48  A    between atoms: _115  and  _116
REMARK   49  A    between atoms: _116  and  _117
REMARK   50  A    between atoms: _119  and  _121
REMARK   51  A    between atoms: _121  and  _122
REMARK   52  A    between atoms: _121  and  _124
REMARK   53  A    between atoms: _124  and  _125
REMARK   54  A    between atoms: _128  and  _130
REMARK   55  A    between atoms: _130  and  _131
REMARK   56  A    between atoms: _130  and  _133
REMARK   57  A    between atoms: _133  and  _134
REMARK   58  A    between atoms: _137  and  _139
REMARK   59  A    between atoms: _139  and  _140
REMARK   60  A    between atoms: _139  and  _142
REMARK   61  A    between atoms: _142  and  _143
REMARK   62  A    between atoms: _146  and  _148
REMARK   63  A    between atoms: _148  and  _149
REMARK   64  A    between atoms: _152  and  _154
REMARK   65  A    between atoms: _154  and  _155
REMARK   66  A    between atoms: _154  and  _157
REMARK   67  A    between atoms: _159  and  _161
REMARK   68  A    between atoms: _161  and  _162
REMARK   69  A    between atoms: _161  and  _164
REMARK   70  A    between atoms: _164  and  _165
REMARK   71  A    between atoms: _170  and  _172
REMARK   72  A    between atoms: _172  and  _173
REMARK   73  A    between atoms: _172  and  _175
REMARK   74  A    between atoms: _175  and  _176
REMARK   75  A    between atoms: _176  and  _177
REMARK   76  A    between atoms: _180  and  _182
REMARK   77  A    between atoms: _182  and  _183
REMARK   78  A    between atoms: _182  and  _185
REMARK   79  A    between atoms: _185  and  _186
REMARK   80  A    between atoms: _192  and  _194
REMARK   81  A    between atoms: _194  and  _195
REMARK   82  A    between atoms: _194  and  _197
REMARK   83  A    between atoms: _197  and  _198
REMARK   84  A    between atoms: _204  and  _206
REMARK   85  A    between atoms: _206  and  _207
REMARK   86  A    between atoms: _206  and  _209
REMARK   87  A    between atoms: _209  and  _210
REMARK   88  A    between atoms: _210  and  _211
REMARK   89  A    between atoms: _214  and  _216
REMARK   90  A    between atoms: _216  and  _217
REMARK   91  A    between atoms: _216  and  _219
REMARK   92  A    between atoms: _222  and  _224
REMARK   93  A    between atoms: _224  and  _225
REMARK   94  A    between atoms: _224  and  _227
REMARK                            x       y       z     vdW  Elec       q    Type
REMARK                         _______ _______ _______ _____ _____    ______ ____
ROOT
ATOM      1  CA  GLU A   1      -1.242   5.488   4.885  0.00  0.00    +0.134 C 
ENDROOT
BRANCH   1   2
ATOM      2  N   GLU A   1      -1.232   6.060   3.527  0.00  0.00    -0.239 NA
ATOM      3  H   GLU A   1      -1.723   6.960   3.351  0.00  0.00    +0.142 HD
ENDBRANCH   1   2
BRANCH   1   4
ATOM      4  C   GLU A   1      -1.853   4.097   4.876  0.00  0.00    +0.224 C 
ATOM      5  O   GLU A   1      -1.367   3.199   5.560  0.00  0.00    -0.287 OA
ENDBRANCH   1   4
BRANCH   1   6
ATOM      6  CB  GLU A   1      -1.938   6.430   5.896  0.00  0.00    +0.037 C 
BRANCH   6   7
ATOM      7  CG  GLU A   1      -1.072   7.686   6.171  0.00  0.00    +0.116 C 
BRANCH   7   8
ATOM      8  CD  GLU A   1      -1.790   8.919   6.770  0.00  0.00    +0.365 C 
ATOM      9  OE2 GLU A   1      -1.100   9.690   7.447  0.00  0.00    -0.246 OA
ATOM     10  OE1 GLU A   1      -2.997   9.157   6.567  0.00  0.00    -0.246 OA
ENDBRANCH   7   8
ENDBRANCH   6   7
ENDBRANCH   1   6
TORSDOF 5
REMARK  Name = ../refined-set-2016/3gk1/3gk1_pocket.pdb
REMARK  94 active torsions:
REMARK  status: ('A' for Active; 'I' for Inactive)
REMARK    1  A    between atoms: _1  and  _3
REMARK    2  A    between atoms: _3  and  _4
REMARK    3  A    between atoms: _3  and  _6
REMARK    4  A    between atoms: _6  and  _7
REMARK    5  A    between atoms: _10  and  _12
REMARK    6  A    between atoms: _12  and  _13
REMARK    7  A    between atoms: _12  and  _15
REMARK    8  A    between atoms: _15  and  _16
REMARK    9  A    between atoms: _18  and  _20
REMARK   10  A    between atoms: _20  and  _21
REMARK   11  A    between atoms: _20  and  _23
REMARK   12  A    between atoms: _23  and  _24
REMARK   13  A    between atoms: _29  and  _31
REMARK   14  A    between atoms: _31  and  _32
REMARK   15  A    between atoms: _31  and  _34
REMARK   16  A    between atoms: _34  and  _35
REMARK   17  A    between atoms: _41  and  _43
REMARK   18  A    between atoms: _43  and  _44
REMARK   19  A    between atoms: _43  and  _46
REMARK   20  A    between atoms: _46  and  _47
REMARK   21  A    between atoms: _50  and  _52
REMARK   22  A    between atoms: _52  and  _53
REMARK   23  A    between atoms: _52  and  _55
REMARK   24  A    between atoms: _55  and  _56
REMARK   25  A    between atoms: _56  and  _57
REMARK   26  A    between atoms: _60  and  _62
REMARK   27  A    between atoms: _62  and  _63
REMARK   28  A    between atoms: _62  and  _65
REMARK   29  A    between atoms: _65  and  _66
REMARK   30  A    between atoms: _69  and  _71
REMARK   31  A    between atoms: _71  and  _72
REMARK   32  A    between atoms: _71  and  _74
REMARK   33  A    between atoms: _74  and  _75
REMARK   34  A    between atoms: _78  and  _80
REMARK   35  A    between atoms: _80  and  _81
REMARK   36  A    between atoms: _84  and  _86
REMARK   37  A    between atoms: _86  and  _87
REMARK   38  A    between atoms: _86  and  _89
REMARK   39  A    between atoms: _89  and  _90
REMARK   40  A    between atoms: _96  and  _98
REMARK   41  A    between atoms: _98  and  _99
REMARK   42  A    between atoms: _98  and  _101
REMARK   43  A    between atoms: _104  and  _106
REMARK   44  A    between atoms: _106  and  _107
REMARK   45  A    between atoms: _110  and  _112
REMARK   46  A    between atoms: _112  and  _113
REMARK   47  A    between atoms: _112  and  _115
REMARK   48  A    between atoms: _115  and  _116
REMARK   49  A    between atoms: _116  and  _117
REMARK   50  A    between atoms: _119  and  _121
REMARK   51  A    between atoms: _121  and  _122
REMARK   52  A    between atoms: _121  and  _124
REMARK   53  A    between atoms: _124  and  _125
REMARK   54  A    between atoms: _128  and  _130
REMARK   55  A    between atoms: _130  and  _131
REMARK   56  A    between atoms: _130  and  _133
REMARK   57  A    between atoms: _133  and  _134
REMARK   58  A    between atoms: _137  and  _139
REMARK   59  A    between atoms: _139  and  _140
REMARK   60  A    between atoms: _139  and  _142
REMARK   61  A    between atoms: _142  and  _143
REMARK   62  A    between atoms: _146  and  _148
REMARK   63  A    between atoms: _148  and  _149
REMARK   64  A    between atoms: _152  and  _154
REMARK   65  A    between atoms: _154  and  _155
REMARK   66  A    between atoms: _154  and  _157
REMARK   67  A    between atoms: _159  and  _161
REMARK   68  A    between atoms: _161  and  _162
REMARK   69  A    between atoms: _161  and  _164
REMARK   70  A    between atoms: _164  and  _165
REMARK   71  A    between atoms: _170  and  _172
REMARK   72  A    between atoms: _172  and  _173
REMARK   73  A    between atoms: _172  and  _175
REMARK   74  A    between atoms: _175  and  _176
REMARK   75  A    between atoms: _176  and  _177
REMARK   76  A    between atoms: _180  and  _182
REMARK   77  A    between atoms: _182  and  _183
REMARK   78  A    between atoms: _182  and  _185
REMARK   79  A    between atoms: _185  and  _186
REMARK   80  A    between atoms: _192  and  _194
REMARK   81  A    between atoms: _194  and  _195
REMARK   82  A    between atoms: _194  and  _197
REMARK   83  A    between atoms: _197  and  _198
REMARK   84  A    between atoms: _204  and  _206
REMARK   85  A    between atoms: _206  and  _207
REMARK   86  A    between atoms: _206  and  _209
REMARK   87  A    between atoms: _209  and  _210
REMARK   88  A    between atoms: _210  and  _211
REMARK   89  A    between atoms: _214  and  _216
REMARK   90  A    between atoms: _216  and  _217
REMARK   91  A    between atoms: _216  and  _219
REMARK   92  A    between atoms: _222  and  _224
REMARK   93  A    between atoms: _224  and  _225
REMARK   94  A    between atoms: _224  and  _227
REMARK                            x       y       z     vdW  Elec       q    Type
REMARK                         _______ _______ _______ _____ _____    ______ ____
ROOT
ATOM      1  C   VAL A   1       1.340   0.416   5.646  0.00  0.00    +0.238 C 
ATOM      2  N   VAL A   2       0.082   0.508   6.095  0.00  0.00    -0.298 N 
ATOM      3  H   VAL A   2      -0.552   1.256   5.748  0.00  0.00    +0.150 HD
ATOM      4  O   VAL A   1       2.088  -0.491   5.991  0.00  0.00    -0.274 OA
ENDROOT
BRANCH   1   5
ATOM      5  CA  VAL A   1       1.854   1.487   4.668  0.00  0.00    +0.145 C 
BRANCH   5   6
ATOM      6  CB  VAL A   1       2.245   2.728   5.457  0.00  0.00    +0.025 C 
ATOM      7  CG2 VAL A   1       3.073   2.327   6.676  0.00  0.00    +0.002 C 
ATOM      8  CG1 VAL A   1       3.014   3.691   4.584  0.00  0.00    +0.002 C 
ENDBRANCH   5   6
BRANCH   5   9
ATOM      9  N   VAL A   1       0.894   1.753   3.571  0.00  0.00    -0.238 NA
ATOM     10  H   VAL A   1       0.579   2.726   3.384  0.00  0.00    +0.142 HD
ENDBRANCH   5   9
ENDBRANCH   1   5
BRANCH   2  11
ATOM     11  CA  VAL A   2      -0.385  -0.470   7.090  0.00  0.00    +0.137 C 
BRANCH  11  12
ATOM     12  CB  VAL A   2      -1.548  -0.016   8.053  0.00  0.00    +0.026 C 
ATOM     13  CG2 VAL A   2      -1.470   1.478   8.408  0.00  0.00    +0.002 C 
ATOM     14  CG1 VAL A   2      -2.923  -0.457   7.550  0.00  0.00    +0.002 C 
ENDBRANCH  11  12
BRANCH  11  15
ATOM     15  C   VAL A   2      -0.686  -1.816   6.467  0.00  0.00    +0.227 C 
ATOM     16  O   VAL A   2      -0.550  -2.836   7.144  0.00  0.00    -0.286 OA
ENDBRANCH  11  15
ENDBRANCH   2  11
TORSDOF 6
REMARK  Name = ../refined-set-2016/3gk1/3gk1_pocket.pdb
REMARK  94 active torsions:
REMARK  status: ('A' for Active; 'I' for Inactive)
REMARK    1  A    between atoms: _1  and  _3
REMARK    2  A    between atoms: _3  and  _4
REMARK    3  A    between atoms: _3  and  _6
REMARK    4  A    between atoms: _6  and  _7
REMARK    5  A    between atoms: _10  and  _12
REMARK    6  A    between atoms: _12  and  _13
REMARK    7  A    between atoms: _12  and  _15
REMARK    8  A    between atoms: _15  and  _16
REMARK    9  A    between atoms: _18  and  _20
REMARK   10  A    between atoms: _20  and  _21
REMARK   11  A    between atoms: _20  and  _23
REMARK   12  A    between atoms: _23  and  _24
REMARK   13  A    between atoms: _29  and  _31
REMARK   14  A    between atoms: _31  and  _32
REMARK   15  A    between atoms: _31  and  _34
REMARK   16  A    between atoms: _34  and  _35
REMARK   17  A    between atoms: _41  and  _43
REMARK   18  A    between atoms: _43  and  _44
REMARK   19  A    between atoms: _43  and  _46
REMARK   20  A    between atoms: _46  and  _47
REMARK   21  A    between atoms: _50  and  _52
REMARK   22  A    between atoms: _52  and  _53
REMARK   23  A    between atoms: _52  and  _55
REMARK   24  A    between atoms: _55  and  _56
REMARK   25  A    between atoms: _56  and  _57
REMARK   26  A    between atoms: _60  and  _62
REMARK   27  A    between atoms: _62  and  _63
REMARK   28  A    between atoms: _62  and  _65
REMARK   29  A    between atoms: _65  and  _66
REMARK   30  A    between atoms: _69  and  _71
REMARK   31  A    between atoms: _71  and  _72
REMARK   32  A    between atoms: _71  and  _74
REMARK   33  A    between atoms: _74  and  _75
REMARK   34  A    between atoms: _78  and  _80
REMARK   35  A    between atoms: _80  and  _81
REMARK   36  A    between atoms: _84  and  _86
REMARK   37  A    between atoms: _86  and  _87
REMARK   38  A    between atoms: _86  and  _89
REMARK   39  A    between atoms: _89  and  _90
REMARK   40  A    between atoms: _96  and  _98
REMARK   41  A    between atoms: _98  and  _99
REMARK   42  A    between atoms: _98  and  _101
REMARK   43  A    between atoms: _104  and  _106
REMARK   44  A    between atoms: _106  and  _107
REMARK   45  A    between atoms: _110  and  _112
REMARK   46  A    between atoms: _112  and  _113
REMARK   47  A    between atoms: _112  and  _115
REMARK   48  A    between atoms: _115  and  _116
REMARK   49  A    between atoms: _116  and  _117
REMARK   50  A    between atoms: _119  and  _121
REMARK   51  A    between atoms: _121  and  _122
REMARK   52  A    between atoms: _121  and  _124
REMARK   53  A    between atoms: _124  and  _125
REMARK   54  A    between atoms: _128  and  _130
REMARK   55  A    between atoms: _130  and  _131
REMARK   56  A    between atoms: _130  and  _133
REMARK   57  A    between atoms: _133  and  _134
REMARK   58  A    between atoms: _137  and  _139
REMARK   59  A    between atoms: _139  and  _140
REMARK   60  A    between atoms: _139  and  _142
REMARK   61  A    between atoms: _142  and  _143
REMARK   62  A    between atoms: _146  and  _148
REMARK   63  A    between atoms: _148  and  _149
REMARK   64  A    between atoms: _152  and  _154
REMARK   65  A    between atoms: _154  and  _155
REMARK   66  A    between atoms: _154  and  _157
REMARK   67  A    between atoms: _159  and  _161
REMARK   68  A    between atoms: _161  and  _162
REMARK   69  A    between atoms: _161  and  _164
REMARK   70  A    between atoms: _164  and  _165
REMARK   71  A    between atoms: _170  and  _172
REMARK   72  A    between atoms: _172  and  _173
REMARK   73  A    between atoms: _172  and  _175
REMARK   74  A    between atoms: _175  and  _176
REMARK   75  A    between atoms: _176  and  _177
REMARK   76  A    between atoms: _180  and  _182
REMARK   77  A    between atoms: _182  and  _183
REMARK   78  A    between atoms: _182  and  _185
REMARK   79  A    between atoms: _185  and  _186
REMARK   80  A    between atoms: _192  and  _194
REMARK   81  A    between atoms: _194  and  _195
REMARK   82  A    between atoms: _194  and  _197
REMARK   83  A    between atoms: _197  and  _198
REMARK   84  A    between atoms: _204  and  _206
REMARK   85  A    between atoms: _206  and  _207
REMARK   86  A    between atoms: _206  and  _209
REMARK   87  A    between atoms: _209  and  _210
REMARK   88  A    between atoms: _210  and  _211
REMARK   89  A    between atoms: _214  and  _216
REMARK   90  A    between atoms: _216  and  _217
REMARK   91  A    between atoms: _216  and  _219
REMARK   92  A    between atoms: _222  and  _224
REMARK   93  A    between atoms: _224  and  _225
REMARK   94  A    between atoms: _224  and  _227
REMARK                            x       y       z     vdW  Elec       q    Type
REMARK                         _______ _______ _______ _____ _____    ______ ____
ROOT
ATOM      1  O   HOH     1      14.161   1.797   5.894  0.00  0.00    +0.000 OA
ENDROOT
TORSDOF 0
REMARK  Name = ../refined-set-2016/3gk1/3gk1_pocket.pdb
REMARK  94 active torsions:
REMARK  status: ('A' for Active; 'I' for Inactive)
REMARK    1  A    between atoms: _1  and  _3
REMARK    2  A    between atoms: _3  and  _4
REMARK    3  A    between atoms: _3  and  _6
REMARK    4  A    between atoms: _6  and  _7
REMARK    5  A    between atoms: _10  and  _12
REMARK    6  A    between atoms: _12  and  _13
REMARK    7  A    between atoms: _12  and  _15
REMARK    8  A    between atoms: _15  and  _16
REMARK    9  A    between atoms: _18  and  _20
REMARK   10  A    between atoms: _20  and  _21
REMARK   11  A    between atoms: _20  and  _23
REMARK   12  A    between atoms: _23  and  _24
REMARK   13  A    between atoms: _29  and  _31
REMARK   14  A    between atoms: _31  and  _32
REMARK   15  A    between atoms: _31  and  _34
REMARK   16  A    between atoms: _34  and  _35
REMARK   17  A    between atoms: _41  and  _43
REMARK   18  A    between atoms: _43  and  _44
REMARK   19  A    between atoms: _43  and  _46
REMARK   20  A    between atoms: _46  and  _47
REMARK   21  A    between atoms: _50  and  _52
REMARK   22  A    between atoms: _52  and  _53
REMARK   23  A    between atoms: _52  and  _55
REMARK   24  A    between atoms: _55  and  _56
REMARK   25  A    between atoms: _56  and  _57
REMARK   26  A    between atoms: _60  and  _62
REMARK   27  A    between atoms: _62  and  _63
REMARK   28  A    between atoms: _62  and  _65
REMARK   29  A    between atoms: _65  and  _66
REMARK   30  A    between atoms: _69  and  _71
REMARK   31  A    between atoms: _71  and  _72
REMARK   32  A    between atoms: _71  and  _74
REMARK   33  A    between atoms: _74  and  _75
REMARK   34  A    between atoms: _78  and  _80
REMARK   35  A    between atoms: _80  and  _81
REMARK   36  A    between atoms: _84  and  _86
REMARK   37  A    between atoms: _86  and  _87
REMARK   38  A    between atoms: _86  and  _89
REMARK   39  A    between atoms: _89  and  _90
REMARK   40  A    between atoms: _96  and  _98
REMARK   41  A    between atoms: _98  and  _99
REMARK   42  A    between atoms: _98  and  _101
REMARK   43  A    between atoms: _104  and  _106
REMARK   44  A    between atoms: _106  and  _107
REMARK   45  A    between atoms: _110  and  _112
REMARK   46  A    between atoms: _112  and  _113
REMARK   47  A    between atoms: _112  and  _115
REMARK   48  A    between atoms: _115  and  _116
REMARK   49  A    between atoms: _116  and  _117
REMARK   50  A    between atoms: _119  and  _121
REMARK   51  A    between atoms: _121  and  _122
REMARK   52  A    between atoms: _121  and  _124
REMARK   53  A    between atoms: _124  and  _125
REMARK   54  A    between atoms: _128  and  _130
REMARK   55  A    between atoms: _130  and  _131
REMARK   56  A    between atoms: _130  and  _133
REMARK   57  A    between atoms: _133  and  _134
REMARK   58  A    between atoms: _137  and  _139
REMARK   59  A    between atoms: _139  and  _140
REMARK   60  A    between atoms: _139  and  _142
REMARK   61  A    between atoms: _142  and  _143
REMARK   62  A    between atoms: _146  and  _148
REMARK   63  A    between atoms: _148  and  _149
REMARK   64  A    between atoms: _152  and  _154
REMARK   65  A    between atoms: _154  and  _155
REMARK   66  A    between atoms: _154  and  _157
REMARK   67  A    between atoms: _159  and  _161
REMARK   68  A    between atoms: _161  and  _162
REMARK   69  A    between atoms: _161  and  _164
REMARK   70  A    between atoms: _164  and  _165
REMARK   71  A    between atoms: _170  and  _172
REMARK   72  A    between atoms: _172  and  _173
REMARK   73  A    between atoms: _172  and  _175
REMARK   74  A    between atoms: _175  and  _176
REMARK   75  A    between atoms: _176  and  _177
REMARK   76  A    between atoms: _180  and  _182
REMARK   77  A    between atoms: _182  and  _183
REMARK   78  A    between atoms: _182  and  _185
REMARK   79  A    between atoms: _185  and  _186
REMARK   80  A    between atoms: _192  and  _194
REMARK   81  A    between atoms: _194  and  _195
REMARK   82  A    between atoms: _194  and  _197
REMARK   83  A    between atoms: _197  and  _198
REMARK   84  A    between atoms: _204  and  _206
REMARK   85  A    between atoms: _206  and  _207
REMARK   86  A    between atoms: _206  and  _209
REMARK   87  A    between atoms: _209  and  _210
REMARK   88  A    between atoms: _210  and  _211
REMARK   89  A    between atoms: _214  and  _216
REMARK   90  A    between atoms: _216  and  _217
REMARK   91  A    between atoms: _216  and  _219
REMARK   92  A    between atoms: _222  and  _224
REMARK   93  A    between atoms: _224  and  _225
REMARK   94  A    between atoms: _224  and  _227
REMARK                            x       y       z     vdW  Elec       q    Type
REMARK                         _______ _______ _______ _____ _____    ______ ____
ROOT
ATOM      1  O   HOH     1       7.554  16.163   9.505  0.00  0.00    +0.000 OA
ENDROOT
TORSDOF 0
REMARK  Name = ../refined-set-2016/3gk1/3gk1_pocket.pdb
REMARK  94 active torsions:
REMARK  status: ('A' for Active; 'I' for Inactive)
REMARK    1  A    between atoms: _1  and  _3
REMARK    2  A    between atoms: _3  and  _4
REMARK    3  A    between atoms: _3  and  _6
REMARK    4  A    between atoms: _6  and  _7
REMARK    5  A    between atoms: _10  and  _12
REMARK    6  A    between atoms: _12  and  _13
REMARK    7  A    between atoms: _12  and  _15
REMARK    8  A    between atoms: _15  and  _16
REMARK    9  A    between atoms: _18  and  _20
REMARK   10  A    between atoms: _20  and  _21
REMARK   11  A    between atoms: _20  and  _23
REMARK   12  A    between atoms: _23  and  _24
REMARK   13  A    between atoms: _29  and  _31
REMARK   14  A    between atoms: _31  and  _32
REMARK   15  A    between atoms: _31  and  _34
REMARK   16  A    between atoms: _34  and  _35
REMARK   17  A    between atoms: _41  and  _43
REMARK   18  A    between atoms: _43  and  _44
REMARK   19  A    between atoms: _43  and  _46
REMARK   20  A    between atoms: _46  and  _47
REMARK   21  A    between atoms: _50  and  _52
REMARK   22  A    between atoms: _52  and  _53
REMARK   23  A    between atoms: _52  and  _55
REMARK   24  A    between atoms: _55  and  _56
REMARK   25  A    between atoms: _56  and  _57
REMARK   26  A    between atoms: _60  and  _62
REMARK   27  A    between atoms: _62  and  _63
REMARK   28  A    between atoms: _62  and  _65
REMARK   29  A    between atoms: _65  and  _66
REMARK   30  A    between atoms: _69  and  _71
REMARK   31  A    between atoms: _71  and  _72
REMARK   32  A    between atoms: _71  and  _74
REMARK   33  A    between atoms: _74  and  _75
REMARK   34  A    between atoms: _78  and  _80
REMARK   35  A    between atoms: _80  and  _81
REMARK   36  A    between atoms: _84  and  _86
REMARK   37  A    between atoms: _86  and  _87
REMARK   38  A    between atoms: _86  and  _89
REMARK   39  A    between atoms: _89  and  _90
REMARK   40  A    between atoms: _96  and  _98
REMARK   41  A    between atoms: _98  and  _99
REMARK   42  A    between atoms: _98  and  _101
REMARK   43  A    between atoms: _104  and  _106
REMARK   44  A    between atoms: _106  and  _107
REMARK   45  A    between atoms: _110  and  _112
REMARK   46  A    between atoms: _112  and  _113
REMARK   47  A    between atoms: _112  and  _115
REMARK   48  A    between atoms: _115  and  _116
REMARK   49  A    between atoms: _116  and  _117
REMARK   50  A    between atoms: _119  and  _121
REMARK   51  A    between atoms: _121  and  _122
REMARK   52  A    between atoms: _121  and  _124
REMARK   53  A    between atoms: _124  and  _125
REMARK   54  A    between atoms: _128  and  _130
REMARK   55  A    between atoms: _130  and  _131
REMARK   56  A    between atoms: _130  and  _133
REMARK   57  A    between atoms: _133  and  _134
REMARK   58  A    between atoms: _137  and  _139
REMARK   59  A    between atoms: _139  and  _140
REMARK   60  A    between atoms: _139  and  _142
REMARK   61  A    between atoms: _142  and  _143
REMARK   62  A    between atoms: _146  and  _148
REMARK   63  A    between atoms: _148  and  _149
REMARK   64  A    between atoms: _152  and  _154
REMARK   65  A    between atoms: _154  and  _155
REMARK   66  A    between atoms: _154  and  _157
REMARK   67  A    between atoms: _159  and  _161
REMARK   68  A    between atoms: _161  and  _162
REMARK   69  A    between atoms: _161  and  _164
REMARK   70  A    between atoms: _164  and  _165
REMARK   71  A    between atoms: _170  and  _172
REMARK   72  A    between atoms: _172  and  _173
REMARK   73  A    between atoms: _172  and  _175
REMARK   74  A    between atoms: _175  and  _176
REMARK   75  A    between atoms: _176  and  _177
REMARK   76  A    between atoms: _180  and  _182
REMARK   77  A    between atoms: _182  and  _183
REMARK   78  A    between atoms: _182  and  _185
REMARK   79  A    between atoms: _185  and  _186
REMARK   80  A    between atoms: _192  and  _194
REMARK   81  A    between atoms: _194  and  _195
REMARK   82  A    between atoms: _194  and  _197
REMARK   83  A    between atoms: _197  and  _198
REMARK   84  A    between atoms: _204  and  _206
REMARK   85  A    between atoms: _206  and  _207
REMARK   86  A    between atoms: _206  and  _209
REMARK   87  A    between atoms: _209  and  _210
REMARK   88  A    between atoms: _210  and  _211
REMARK   89  A    between atoms: _214  and  _216
REMARK   90  A    between atoms: _216  and  _217
REMARK   91  A    between atoms: _216  and  _219
REMARK   92  A    between atoms: _222  and  _224
REMARK   93  A    between atoms: _224  and  _225
REMARK   94  A    between atoms: _224  and  _227
REMARK                            x       y       z     vdW  Elec       q    Type
REMARK                         _______ _______ _______ _____ _____    ______ ____
ROOT
ATOM      1  O   HOH     1      14.776   2.824   8.290  0.00  0.00    +0.000 OA
ENDROOT
TORSDOF 0
REMARK  Name = ../refined-set-2016/3gk1/3gk1_pocket.pdb
REMARK  94 active torsions:
REMARK  status: ('A' for Active; 'I' for Inactive)
REMARK    1  A    between atoms: _1  and  _3
REMARK    2  A    between atoms: _3  and  _4
REMARK    3  A    between atoms: _3  and  _6
REMARK    4  A    between atoms: _6  and  _7
REMARK    5  A    between atoms: _10  and  _12
REMARK    6  A    between atoms: _12  and  _13
REMARK    7  A    between atoms: _12  and  _15
REMARK    8  A    between atoms: _15  and  _16
REMARK    9  A    between atoms: _18  and  _20
REMARK   10  A    between atoms: _20  and  _21
REMARK   11  A    between atoms: _20  and  _23
REMARK   12  A    between atoms: _23  and  _24
REMARK   13  A    between atoms: _29  and  _31
REMARK   14  A    between atoms: _31  and  _32
REMARK   15  A    between atoms: _31  and  _34
REMARK   16  A    between atoms: _34  and  _35
REMARK   17  A    between atoms: _41  and  _43
REMARK   18  A    between atoms: _43  and  _44
REMARK   19  A    between atoms: _43  and  _46
REMARK   20  A    between atoms: _46  and  _47
REMARK   21  A    between atoms: _50  and  _52
REMARK   22  A    between atoms: _52  and  _53
REMARK   23  A    between atoms: _52  and  _55
REMARK   24  A    between atoms: _55  and  _56
REMARK   25  A    between atoms: _56  and  _57
REMARK   26  A    between atoms: _60  and  _62
REMARK   27  A    between atoms: _62  and  _63
REMARK   28  A    between atoms: _62  and  _65
REMARK   29  A    between atoms: _65  and  _66
REMARK   30  A    between atoms: _69  and  _71
REMARK   31  A    between atoms: _71  and  _72
REMARK   32  A    between atoms: _71  and  _74
REMARK   33  A    between atoms: _74  and  _75
REMARK   34  A    between atoms: _78  and  _80
REMARK   35  A    between atoms: _80  and  _81
REMARK   36  A    between atoms: _84  and  _86
REMARK   37  A    between atoms: _86  and  _87
REMARK   38  A    between atoms: _86  and  _89
REMARK   39  A    between atoms: _89  and  _90
REMARK   40  A    between atoms: _96  and  _98
REMARK   41  A    between atoms: _98  and  _99
REMARK   42  A    between atoms: _98  and  _101
REMARK   43  A    between atoms: _104  and  _106
REMARK   44  A    between atoms: _106  and  _107
REMARK   45  A    between atoms: _110  and  _112
REMARK   46  A    between atoms: _112  and  _113
REMARK   47  A    between atoms: _112  and  _115
REMARK   48  A    between atoms: _115  and  _116
REMARK   49  A    between atoms: _116  and  _117
REMARK   50  A    between atoms: _119  and  _121
REMARK   51  A    between atoms: _121  and  _122
REMARK   52  A    between atoms: _121  and  _124
REMARK   53  A    between atoms: _124  and  _125
REMARK   54  A    between atoms: _128  and  _130
REMARK   55  A    between atoms: _130  and  _131
REMARK   56  A    between atoms: _130  and  _133
REMARK   57  A    between atoms: _133  and  _134
REMARK   58  A    between atoms: _137  and  _139
REMARK   59  A    between atoms: _139  and  _140
REMARK   60  A    between atoms: _139  and  _142
REMARK   61  A    between atoms: _142  and  _143
REMARK   62  A    between atoms: _146  and  _148
REMARK   63  A    between atoms: _148  and  _149
REMARK   64  A    between atoms: _152  and  _154
REMARK   65  A    between atoms: _154  and  _155
REMARK   66  A    between atoms: _154  and  _157
REMARK   67  A    between atoms: _159  and  _161
REMARK   68  A    between atoms: _161  and  _162
REMARK   69  A    between atoms: _161  and  _164
REMARK   70  A    between atoms: _164  and  _165
REMARK   71  A    between atoms: _170  and  _172
REMARK   72  A    between atoms: _172  and  _173
REMARK   73  A    between atoms: _172  and  _175
REMARK   74  A    between atoms: _175  and  _176
REMARK   75  A    between atoms: _176  and  _177
REMARK   76  A    between atoms: _180  and  _182
REMARK   77  A    between atoms: _182  and  _183
REMARK   78  A    between atoms: _182  and  _185
REMARK   79  A    between atoms: _185  and  _186
REMARK   80  A    between atoms: _192  and  _194
REMARK   81  A    between atoms: _194  and  _195
REMARK   82  A    between atoms: _194  and  _197
REMARK   83  A    between atoms: _197  and  _198
REMARK   84  A    between atoms: _204  and  _206
REMARK   85  A    between atoms: _206  and  _207
REMARK   86  A    between atoms: _206  and  _209
REMARK   87  A    between atoms: _209  and  _210
REMARK   88  A    between atoms: _210  and  _211
REMARK   89  A    between atoms: _214  and  _216
REMARK   90  A    between atoms: _216  and  _217
REMARK   91  A    between atoms: _216  and  _219
REMARK   92  A    between atoms: _222  and  _224
REMARK   93  A    between atoms: _224  and  _225
REMARK   94  A    between atoms: _224  and  _227
REMARK                            x       y       z     vdW  Elec       q    Type
REMARK                         _______ _______ _______ _____ _____    ______ ____
ROOT
ATOM      1  O   HOH     1      12.711   4.221   9.945  0.00  0.00    +0.000 OA
ENDROOT
TORSDOF 0
REMARK  Name = ../refined-set-2016/3gk1/3gk1_pocket.pdb
REMARK  94 active torsions:
REMARK  status: ('A' for Active; 'I' for Inactive)
REMARK    1  A    between atoms: _1  and  _3
REMARK    2  A    between atoms: _3  and  _4
REMARK    3  A    between atoms: _3  and  _6
REMARK    4  A    between atoms: _6  and  _7
REMARK    5  A    between atoms: _10  and  _12
REMARK    6  A    between atoms: _12  and  _13
REMARK    7  A    between atoms: _12  and  _15
REMARK    8  A    between atoms: _15  and  _16
REMARK    9  A    between atoms: _18  and  _20
REMARK   10  A    between atoms: _20  and  _21
REMARK   11  A    between atoms: _20  and  _23
REMARK   12  A    between atoms: _23  and  _24
REMARK   13  A    between atoms: _29  and  _31
REMARK   14  A    between atoms: _31  and  _32
REMARK   15  A    between atoms: _31  and  _34
REMARK   16  A    between atoms: _34  and  _35
REMARK   17  A    between atoms: _41  and  _43
REMARK   18  A    between atoms: _43  and  _44
REMARK   19  A    between atoms: _43  and  _46
REMARK   20  A    between atoms: _46  and  _47
REMARK   21  A    between atoms: _50  and  _52
REMARK   22  A    between atoms: _52  and  _53
REMARK   23  A    between atoms: _52  and  _55
REMARK   24  A    between atoms: _55  and  _56
REMARK   25  A    between atoms: _56  and  _57
REMARK   26  A    between atoms: _60  and  _62
REMARK   27  A    between atoms: _62  and  _63
REMARK   28  A    between atoms: _62  and  _65
REMARK   29  A    between atoms: _65  and  _66
REMARK   30  A    between atoms: _69  and  _71
REMARK   31  A    between atoms: _71  and  _72
REMARK   32  A    between atoms: _71  and  _74
REMARK   33  A    between atoms: _74  and  _75
REMARK   34  A    between atoms: _78  and  _80
REMARK   35  A    between atoms: _80  and  _81
REMARK   36  A    between atoms: _84  and  _86
REMARK   37  A    between atoms: _86  and  _87
REMARK   38  A    between atoms: _86  and  _89
REMARK   39  A    between atoms: _89  and  _90
REMARK   40  A    between atoms: _96  and  _98
REMARK   41  A    between atoms: _98  and  _99
REMARK   42  A    between atoms: _98  and  _101
REMARK   43  A    between atoms: _104  and  _106
REMARK   44  A    between atoms: _106  and  _107
REMARK   45  A    between atoms: _110  and  _112
REMARK   46  A    between atoms: _112  and  _113
REMARK   47  A    between atoms: _112  and  _115
REMARK   48  A    between atoms: _115  and  _116
REMARK   49  A    between atoms: _116  and  _117
REMARK   50  A    between atoms: _119  and  _121
REMARK   51  A    between atoms: _121  and  _122
REMARK   52  A    between atoms: _121  and  _124
REMARK   53  A    between atoms: _124  and  _125
REMARK   54  A    between atoms: _128  and  _130
REMARK   55  A    between atoms: _130  and  _131
REMARK   56  A    between atoms: _130  and  _133
REMARK   57  A    between atoms: _133  and  _134
REMARK   58  A    between atoms: _137  and  _139
REMARK   59  A    between atoms: _139  and  _140
REMARK   60  A    between atoms: _139  and  _142
REMARK   61  A    between atoms: _142  and  _143
REMARK   62  A    between atoms: _146  and  _148
REMARK   63  A    between atoms: _148  and  _149
REMARK   64  A    between atoms: _152  and  _154
REMARK   65  A    between atoms: _154  and  _155
REMARK   66  A    between atoms: _154  and  _157
REMARK   67  A    between atoms: _159  and  _161
REMARK   68  A    between atoms: _161  and  _162
REMARK   69  A    between atoms: _161  and  _164
REMARK   70  A    between atoms: _164  and  _165
REMARK   71  A    between atoms: _170  and  _172
REMARK   72  A    between atoms: _172  and  _173
REMARK   73  A    between atoms: _172  and  _175
REMARK   74  A    between atoms: _175  and  _176
REMARK   75  A    between atoms: _176  and  _177
REMARK   76  A    between atoms: _180  and  _182
REMARK   77  A    between atoms: _182  and  _183
REMARK   78  A    between atoms: _182  and  _185
REMARK   79  A    between atoms: _185  and  _186
REMARK   80  A    between atoms: _192  and  _194
REMARK   81  A    between atoms: _194  and  _195
REMARK   82  A    between atoms: _194  and  _197
REMARK   83  A    between atoms: _197  and  _198
REMARK   84  A    between atoms: _204  and  _206
REMARK   85  A    between atoms: _206  and  _207
REMARK   86  A    between atoms: _206  and  _209
REMARK   87  A    between atoms: _209  and  _210
REMARK   88  A    between atoms: _210  and  _211
REMARK   89  A    between atoms: _214  and  _216
REMARK   90  A    between atoms: _216  and  _217
REMARK   91  A    between atoms: _216  and  _219
REMARK   92  A    between atoms: _222  and  _224
REMARK   93  A    between atoms: _224  and  _225
REMARK   94  A    between atoms: _224  and  _227
REMARK                            x       y       z     vdW  Elec       q    Type
REMARK                         _______ _______ _______ _____ _____    ______ ____
ROOT
ATOM      1  O   HOH     1       7.494  13.966  12.005  0.00  0.00    +0.000 OA
ENDROOT
TORSDOF 0
