REMARK  Name = ../refined-set-2016/2gzl/2gzl_pocket.pdb
REMARK  235 active torsions:
REMARK  status: ('A' for Active; 'I' for Inactive)
REMARK    1  A    between atoms: _1  and  _3
REMARK    2  A    between atoms: _3  and  _4
REMARK    3  A    between atoms: _3  and  _6
REMARK    4  A    between atoms: _6  and  _7
REMARK    5  A    between atoms: _13  and  _15
REMARK    6  A    between atoms: _24  and  _27
REMARK    7  A    between atoms: _32  and  _33
REMARK    8  A    between atoms: _41  and  _43
REMARK    9  A    between atoms: _43  and  _44
REMARK   10  A    between atoms: _43  and  _46
REMARK   11  A    between atoms: _46  and  _47
REMARK   12  A    between atoms: _50  and  _52
REMARK   13  A    between atoms: _52  and  _53
REMARK   14  A    between atoms: _56  and  _58
REMARK   15  A    between atoms: _58  and  _59
REMARK   16  A    between atoms: _58  and  _61
REMARK   17  A    between atoms: _61  and  _62
REMARK   18  A    between atoms: _67  and  _69
REMARK   19  A    between atoms: _69  and  _70
REMARK   20  A    between atoms: _69  and  _72
REMARK   21  A    between atoms: _72  and  _73
REMARK   22  A    between atoms: _75  and  _77
REMARK   23  A    between atoms: _77  and  _78
REMARK   24  A    between atoms: _77  and  _80
REMARK   25  A    between atoms: _80  and  _81
REMARK   26  A    between atoms: _84  and  _86
REMARK   27  A    between atoms: _86  and  _87
REMARK   28  A    between atoms: _89  and  _91
REMARK   29  A    between atoms: _91  and  _92
REMARK   30  A    between atoms: _91  and  _94
REMARK   31  A    between atoms: _94  and  _95
REMARK   32  A    between atoms: _98  and  _100
REMARK   33  A    between atoms: _100  and  _101
REMARK   34  A    between atoms: _100  and  _103
REMARK   35  A    between atoms: _106  and  _108
REMARK   36  A    between atoms: _108  and  _109
REMARK   37  A    between atoms: _108  and  _111
REMARK   38  A    between atoms: _111  and  _112
REMARK   39  A    between atoms: _113  and  ZN_595
REMARK   40  A    between atoms: _117  and  _119
REMARK   41  A    between atoms: _119  and  _120
REMARK   42  A    between atoms: _123  and  _125
REMARK   43  A    between atoms: _125  and  _126
REMARK   44  A    between atoms: _125  and  _128
REMARK   45  A    between atoms: _128  and  _129
REMARK   46  A    between atoms: _132  and  _134
REMARK   47  A    between atoms: _134  and  _135
REMARK   48  A    between atoms: _134  and  _137
REMARK   49  A    between atoms: _137  and  _138
REMARK   50  A    between atoms: _141  and  _143
REMARK   51  A    between atoms: _143  and  _144
REMARK   52  A    between atoms: _146  and  _148
REMARK   53  A    between atoms: _148  and  _149
REMARK   54  A    between atoms: _148  and  _151
REMARK   55  A    between atoms: _151  and  _152
REMARK   56  A    between atoms: _155  and  _157
REMARK   57  A    between atoms: _157  and  _158
REMARK   58  A    between atoms: _157  and  _160
REMARK   59  A    between atoms: _160  and  _161
REMARK   60  A    between atoms: _164  and  _166
REMARK   61  A    between atoms: _166  and  _167
REMARK   62  A    between atoms: _169  and  _171
REMARK   63  A    between atoms: _171  and  _172
REMARK   64  A    between atoms: _171  and  _174
REMARK   65  A    between atoms: _174  and  _175
REMARK   66  A    between atoms: _175  and  _176
REMARK   67  A    between atoms: _176  and  _177
REMARK   68  A    between atoms: _177  and  _178
REMARK   69  A    between atoms: _182  and  _184
REMARK   70  A    between atoms: _184  and  _185
REMARK   71  A    between atoms: _184  and  _187
REMARK   72  A    between atoms: _187  and  _188
REMARK   73  A    between atoms: _191  and  _193
REMARK   74  A    between atoms: _193  and  _194
REMARK   75  A    between atoms: _193  and  _196
REMARK   76  A    between atoms: _196  and  _197
REMARK   77  A    between atoms: _204  and  _205
REMARK   78  A    between atoms: _210  and  _212
REMARK   79  A    between atoms: _212  and  _213
REMARK   80  A    between atoms: _212  and  _215
REMARK   81  A    between atoms: _215  and  _216
REMARK   82  A    between atoms: _219  and  _221
REMARK   83  A    between atoms: _221  and  _222
REMARK   84  A    between atoms: _221  and  _224
REMARK   85  A    between atoms: _224  and  _225
REMARK   86  A    between atoms: _228  and  _230
REMARK   87  A    between atoms: _230  and  _231
REMARK   88  A    between atoms: _230  and  _233
REMARK   89  A    between atoms: _233  and  _234
REMARK   90  A    between atoms: _238  and  _239
REMARK   91  A    between atoms: _244  and  _246
REMARK   92  A    between atoms: _246  and  _247
REMARK   93  A    between atoms: _250  and  _252
REMARK   94  A    between atoms: _252  and  _253
REMARK   95  A    between atoms: _252  and  _255
REMARK   96  A    between atoms: _255  and  _256
REMARK   97  A    between atoms: _262  and  _264
REMARK   98  A    between atoms: _264  and  _265
REMARK   99  A    between atoms: _267  and  _269
REMARK  100  A    between atoms: _269  and  _270
REMARK  101  A    between atoms: _273  and  _275
REMARK  102  A    between atoms: _275  and  _276
REMARK  103  A    between atoms: _275  and  _278
REMARK  104  A    between atoms: _278  and  _279
REMARK  105  A    between atoms: _282  and  _284
REMARK  106  A    between atoms: _284  and  _285
REMARK  107  A    between atoms: _284  and  _287
REMARK  108  A    between atoms: _287  and  _288
REMARK  109  A    between atoms: _290  and  _292
REMARK  110  A    between atoms: _292  and  _293
REMARK  111  A    between atoms: _292  and  _295
REMARK  112  A    between atoms: _295  and  _296
REMARK  113  A    between atoms: _296  and  _297
REMARK  114  A    between atoms: _297  and  _298
REMARK  115  A    between atoms: _307  and  _309
REMARK  116  A    between atoms: _309  and  _310
REMARK  117  A    between atoms: _309  and  _312
REMARK  118  A    between atoms: _312  and  _313
REMARK  119  A    between atoms: _313  and  _314
REMARK  120  A    between atoms: _317  and  _319
REMARK  121  A    between atoms: _319  and  _320
REMARK  122  A    between atoms: _319  and  _322
REMARK  123  A    between atoms: _322  and  _323
REMARK  124  A    between atoms: _326  and  _328
REMARK  125  A    between atoms: _328  and  _329
REMARK  126  A    between atoms: _328  and  _331
REMARK  127  A    between atoms: _331  and  _332
REMARK  128  A    between atoms: _335  and  _337
REMARK  129  A    between atoms: _337  and  _338
REMARK  130  A    between atoms: _337  and  _340
REMARK  131  A    between atoms: _340  and  _341
REMARK  132  A    between atoms: _341  and  _342
REMARK  133  A    between atoms: _342  and  _343
REMARK  134  A    between atoms: _352  and  _354
REMARK  135  A    between atoms: _354  and  _355
REMARK  136  A    between atoms: _354  and  _357
REMARK  137  A    between atoms: _357  and  _358
REMARK  138  A    between atoms: _358  and  _359
REMARK  139  A    between atoms: _362  and  _364
REMARK  140  A    between atoms: _364  and  _365
REMARK  141  A    between atoms: _368  and  _370
REMARK  142  A    between atoms: _370  and  _371
REMARK  143  A    between atoms: _370  and  _373
REMARK  144  A    between atoms: _373  and  _374
REMARK  145  A    between atoms: _374  and  _375
REMARK  146  A    between atoms: _375  and  _376
REMARK  147  A    between atoms: _385  and  _387
REMARK  148  A    between atoms: _387  and  _388
REMARK  149  A    between atoms: _387  and  _390
REMARK  150  A    between atoms: _390  and  _391
REMARK  151  A    between atoms: _391  and  _392
REMARK  152  A    between atoms: _392  and  _393
REMARK  153  A    between atoms: _402  and  _404
REMARK  154  A    between atoms: _404  and  _405
REMARK  155  A    between atoms: _404  and  _407
REMARK  156  A    between atoms: _407  and  _408
REMARK  157  A    between atoms: _411  and  _413
REMARK  158  A    between atoms: _413  and  _414
REMARK  159  A    between atoms: _413  and  _416
REMARK  160  A    between atoms: _416  and  _417
REMARK  161  A    between atoms: _420  and  _422
REMARK  162  A    between atoms: _422  and  _423
REMARK  163  A    between atoms: _426  and  _428
REMARK  164  A    between atoms: _428  and  _429
REMARK  165  A    between atoms: _428  and  _431
REMARK  166  A    between atoms: _431  and  _432
REMARK  167  A    between atoms: _432  and  _433
REMARK  168  A    between atoms: _438  and  _440
REMARK  169  A    between atoms: _440  and  _441
REMARK  170  A    between atoms: _445  and  _446
REMARK  171  A    between atoms: _451  and  _453
REMARK  172  A    between atoms: _453  and  _454
REMARK  173  A    between atoms: _453  and  _456
REMARK  174  A    between atoms: _456  and  _457
REMARK  175  A    between atoms: _457  and  _458
REMARK  176  A    between atoms: _458  and  _459
REMARK  177  A    between atoms: _459  and  _460
REMARK  178  A    between atoms: _464  and  _466
REMARK  179  A    between atoms: _466  and  _467
REMARK  180  A    between atoms: _466  and  _469
REMARK  181  A    between atoms: _469  and  _470
REMARK  182  A    between atoms: _470  and  _471
REMARK  183  A    between atoms: _473  and  _475
REMARK  184  A    between atoms: _475  and  _476
REMARK  185  A    between atoms: _475  and  _478
REMARK  186  A    between atoms: _478  and  _479
REMARK  187  A    between atoms: _483  and  _484
REMARK  188  A    between atoms: _489  and  _491
REMARK  189  A    between atoms: _491  and  _492
REMARK  190  A    between atoms: _491  and  _494
REMARK  191  A    between atoms: _494  and  _495
REMARK  192  A    between atoms: _500  and  _502
REMARK  193  A    between atoms: _502  and  _503
REMARK  194  A    between atoms: _502  and  _505
REMARK  195  A    between atoms: _505  and  _506
REMARK  196  A    between atoms: _509  and  _511
REMARK  197  A    between atoms: _511  and  _512
REMARK  198  A    between atoms: _511  and  _514
REMARK  199  A    between atoms: _517  and  _519
REMARK  200  A    between atoms: _519  and  _520
REMARK  201  A    between atoms: _519  and  _522
REMARK  202  A    between atoms: _522  and  _523
REMARK  203  A    between atoms: _523  and  _524
REMARK  204  A    between atoms: _524  and  _525
REMARK  205  A    between atoms: _525  and  _526
REMARK  206  A    between atoms: _530  and  _532
REMARK  207  A    between atoms: _532  and  _533
REMARK  208  A    between atoms: _536  and  _538
REMARK  209  A    between atoms: _538  and  _539
REMARK  210  A    between atoms: _538  and  _541
REMARK  211  A    between atoms: _541  and  _542
REMARK  212  A    between atoms: _545  and  _547
REMARK  213  A    between atoms: _547  and  _548
REMARK  214  A    between atoms: _547  and  _550
REMARK  215  A    between atoms: _550  and  _551
REMARK  216  A    between atoms: _554  and  _556
REMARK  217  A    between atoms: _556  and  _557
REMARK  218  A    between atoms: _556  and  _559
REMARK  219  A    between atoms: _559  and  _560
REMARK  220  A    between atoms: _563  and  _565
REMARK  221  A    between atoms: _565  and  _566
REMARK  222  A    between atoms: _565  and  _568
REMARK  223  A    between atoms: _568  and  _569
REMARK  224  A    between atoms: _569  and  _570
REMARK  225  A    between atoms: _573  and  _575
REMARK  226  A    between atoms: _575  and  _576
REMARK  227  A    between atoms: _575  and  _578
REMARK  228  A    between atoms: _578  and  _579
REMARK  229  A    between atoms: _579  and  _580
REMARK  230  A    between atoms: _580  and  _581
REMARK  231  A    between atoms: _581  and  _582
REMARK  232  A    between atoms: _586  and  _588
REMARK  233  A    between atoms: _588  and  _589
REMARK  234  A    between atoms: _588  and  _591
REMARK  235  A    between atoms: _591  and  _592
REMARK                            x       y       z     vdW  Elec       q    Type
REMARK                         _______ _______ _______ _____ _____    ______ ____
ROOT
ATOM      1  C   UNK A   2      10.865  17.913  24.398  0.00  0.00    +0.000 C 
ATOM      2  C   UNK A   2      10.105  18.735  25.428  0.00  0.00    +0.000 C 
ATOM      3  C   UNK A   2       8.979  17.968  26.050  0.00  0.00    +0.000 C 
ATOM      4  O   UNK A   2       8.123  18.595  26.691  0.00  0.00    +0.000 OA
ATOM      5 ZN   UNK A   2       6.520  17.674  27.756  0.00  0.00    +0.000 Zn
ATOM      6  N   UNK A   2       5.041  17.706  26.255  0.00  0.00    +0.000 N 
ATOM      7  C   UNK A   2       4.193  16.704  26.401  0.00  0.00    +0.000 A 
ATOM      8  N   UNK A   2       3.587  16.499  25.247  0.00  0.00    +0.000 NA
ATOM      9  C   UNK A   2       4.057  17.403  24.319  0.00  0.00    +0.000 A 
ATOM     10  C   UNK A   2       3.586  17.418  22.900  0.00  0.00    +0.000 C 
ATOM     11  C   UNK A   2       4.390  16.491  21.989  0.00  0.00    +0.000 C 
ATOM     12  N   UNK A   2       5.772  16.947  21.827  0.00  0.00    +0.000 N 
ATOM     13  C   VAL A   3       6.772  16.355  22.478  0.00  0.00    +0.000 C 
ATOM     14  O   VAL A   3       6.595  15.600  23.431  0.00  0.00    +0.000 OA
ATOM     15  CA  VAL A   3       8.183  16.656  21.990  0.00  0.00    +0.000 C 
ATOM     16  N   VAL A   3       9.079  16.880  23.118  0.00  0.00    +0.000 N 
ATOM     17  H   VAL A   3       8.961  16.294  23.969  0.00  0.00    +0.000 HD
ATOM     18  H   UNK A   2       5.976  17.746  21.193  0.00  0.00    +0.000 HD
ATOM     19  C   UNK A   2       4.977  18.158  24.961  0.00  0.00    +0.000 A 
ATOM     20  O   UNK A   2       8.943  16.729  25.905  0.00  0.00    +0.000 OA
ATOM     21  C   UNK A   2      10.044  17.803  23.109  0.00  0.00    +0.000 C 
ATOM     22  O   UNK A   2      10.283  18.539  22.138  0.00  0.00    +0.000 OA
ENDROOT
BRANCH   5  23
ATOM     23  N   UNK A   2       6.297  19.304  28.947  0.00  0.00    +0.000 N 
ATOM     24  C   UNK A   2       5.126  19.466  29.538  0.00  0.00    +0.000 A 
ATOM     25  N   UNK A   2       5.188  20.544  30.301  0.00  0.00    +0.000 NA
ATOM     26  C   UNK A   2       6.449  21.083  30.209  0.00  0.00    +0.000 A 
ATOM     27  C   UNK A   2       7.159  20.301  29.360  0.00  0.00    +0.000 A 
BRANCH  27  28
ATOM     28  C   UNK A   2       8.572  20.401  28.869  0.00  0.00    +0.000 C 
BRANCH  28  29
ATOM     29  C   UNK A   2       9.349  21.594  29.434  0.00  0.00    +0.000 C 
BRANCH  29  30
ATOM     30  C   UNK A   2      10.817  21.495  29.016  0.00  0.00    +0.000 C 
ATOM     31  O   UNK A   2      11.668  21.104  29.823  0.00  0.00    +0.000 OA
ATOM     32  N   UNK A   2      11.118  21.846  27.768  0.00  0.00    +0.000 N 
ATOM     33  H   UNK A   2      10.360  22.138  27.118  0.00  0.00    +0.000 HD
BRANCH  32  34
ATOM     34  C   UNK A   2      12.504  21.825  27.301  0.00  0.00    +0.000 C 
ATOM     35  C   UNK A   2      12.587  22.122  25.817  0.00  0.00    +0.000 C 
BRANCH  34  36
ATOM     36  C   UNK A   2      13.357  22.806  28.115  0.00  0.00    +0.000 C 
ATOM     37  O   UNK A   2      14.481  22.480  28.507  0.00  0.00    +0.000 OA
ENDBRANCH  34  36
ENDBRANCH  32  34
ENDBRANCH  29  30
BRANCH  29  38
ATOM     38  N   UNK A   2       8.750  22.872  29.045  0.00  0.00    +0.000 NA
ATOM     39  H   UNK A   1       7.995  22.881  28.330  0.00  0.00    +0.000 HD
ENDBRANCH  29  38
ENDBRANCH  28  29
ENDBRANCH  27  28
ENDBRANCH   5  23
BRANCH   1  42
ATOM     40  C   UNK A   1      13.223  18.081  24.926  0.00  0.00    +0.000 C 
ATOM     41  O   UNK A   1      13.131  17.233  25.814  0.00  0.00    +0.000 OA
ATOM     42  N   UNK A   2      12.187  18.482  24.196  0.00  0.00    +0.000 N 
ATOM     43  H   UNK A   2      12.324  19.214  23.470  0.00  0.00    +0.000 HD
BRANCH  40  44
ATOM     44  C   UNK A   1      14.558  18.723  24.610  0.00  0.00    +0.000 C 
BRANCH  44  45
ATOM     45  N   UNK A   1      15.217  19.093  25.847  0.00  0.00    +0.000 NA
ATOM     46  H   UNK A   1      15.035  18.534  26.705  0.00  0.00    +0.000 HD
ENDBRANCH  44  45
BRANCH  44  47
ATOM     47  C   UNK A   1      15.429  17.762  23.792  0.00  0.00    +0.000 C 
BRANCH  47  48
ATOM     48  C   UNK A   1      14.807  17.340  22.495  0.00  0.00    +0.000 A 
ATOM     49  C   UNK A   1      14.159  16.111  22.382  0.00  0.00    +0.000 A 
ATOM     50  C   UNK A   1      13.573  15.715  21.170  0.00  0.00    +0.000 A 
ATOM     51  C   UNK A   1      13.629  16.564  20.062  0.00  0.00    +0.000 A 
ATOM     52  C   UNK A   1      14.265  17.796  20.169  0.00  0.00    +0.000 A 
ATOM     53  C   UNK A   1      14.852  18.176  21.387  0.00  0.00    +0.000 A 
ENDBRANCH  47  48
ENDBRANCH  44  47
ENDBRANCH  40  44
ENDBRANCH   1  42
BRANCH  15  54
ATOM     54  CB  VAL A   3       8.643  15.466  21.119  0.00  0.00    +0.000 C 
ATOM     55  CG2 VAL A   3       9.918  15.801  20.365  0.00  0.00    +0.000 C 
ATOM     56  CG1 VAL A   3       7.534  15.038  20.138  0.00  0.00    +0.000 C 
ENDBRANCH  15  54
BRANCH  11  57
ATOM     57  C   UNK A   2       3.681  16.293  20.664  0.00  0.00    +0.000 C 
ATOM     58  O   ACE A   4       3.949  16.990  19.680  0.00  0.00    +0.000 OA
ENDBRANCH  11  57
TORSDOF 14
REMARK  Name = ../refined-set-2016/2gzl/2gzl_pocket.pdb
REMARK  235 active torsions:
REMARK  status: ('A' for Active; 'I' for Inactive)
REMARK    1  A    between atoms: _1  and  _3
REMARK    2  A    between atoms: _3  and  _4
REMARK    3  A    between atoms: _3  and  _6
REMARK    4  A    between atoms: _6  and  _7
REMARK    5  A    between atoms: _13  and  _15
REMARK    6  A    between atoms: _24  and  _27
REMARK    7  A    between atoms: _32  and  _33
REMARK    8  A    between atoms: _41  and  _43
REMARK    9  A    between atoms: _43  and  _44
REMARK   10  A    between atoms: _43  and  _46
REMARK   11  A    between atoms: _46  and  _47
REMARK   12  A    between atoms: _50  and  _52
REMARK   13  A    between atoms: _52  and  _53
REMARK   14  A    between atoms: _56  and  _58
REMARK   15  A    between atoms: _58  and  _59
REMARK   16  A    between atoms: _58  and  _61
REMARK   17  A    between atoms: _61  and  _62
REMARK   18  A    between atoms: _67  and  _69
REMARK   19  A    between atoms: _69  and  _70
REMARK   20  A    between atoms: _69  and  _72
REMARK   21  A    between atoms: _72  and  _73
REMARK   22  A    between atoms: _75  and  _77
REMARK   23  A    between atoms: _77  and  _78
REMARK   24  A    between atoms: _77  and  _80
REMARK   25  A    between atoms: _80  and  _81
REMARK   26  A    between atoms: _84  and  _86
REMARK   27  A    between atoms: _86  and  _87
REMARK   28  A    between atoms: _89  and  _91
REMARK   29  A    between atoms: _91  and  _92
REMARK   30  A    between atoms: _91  and  _94
REMARK   31  A    between atoms: _94  and  _95
REMARK   32  A    between atoms: _98  and  _100
REMARK   33  A    between atoms: _100  and  _101
REMARK   34  A    between atoms: _100  and  _103
REMARK   35  A    between atoms: _106  and  _108
REMARK   36  A    between atoms: _108  and  _109
REMARK   37  A    between atoms: _108  and  _111
REMARK   38  A    between atoms: _111  and  _112
REMARK   39  A    between atoms: _113  and  ZN_595
REMARK   40  A    between atoms: _117  and  _119
REMARK   41  A    between atoms: _119  and  _120
REMARK   42  A    between atoms: _123  and  _125
REMARK   43  A    between atoms: _125  and  _126
REMARK   44  A    between atoms: _125  and  _128
REMARK   45  A    between atoms: _128  and  _129
REMARK   46  A    between atoms: _132  and  _134
REMARK   47  A    between atoms: _134  and  _135
REMARK   48  A    between atoms: _134  and  _137
REMARK   49  A    between atoms: _137  and  _138
REMARK   50  A    between atoms: _141  and  _143
REMARK   51  A    between atoms: _143  and  _144
REMARK   52  A    between atoms: _146  and  _148
REMARK   53  A    between atoms: _148  and  _149
REMARK   54  A    between atoms: _148  and  _151
REMARK   55  A    between atoms: _151  and  _152
REMARK   56  A    between atoms: _155  and  _157
REMARK   57  A    between atoms: _157  and  _158
REMARK   58  A    between atoms: _157  and  _160
REMARK   59  A    between atoms: _160  and  _161
REMARK   60  A    between atoms: _164  and  _166
REMARK   61  A    between atoms: _166  and  _167
REMARK   62  A    between atoms: _169  and  _171
REMARK   63  A    between atoms: _171  and  _172
REMARK   64  A    between atoms: _171  and  _174
REMARK   65  A    between atoms: _174  and  _175
REMARK   66  A    between atoms: _175  and  _176
REMARK   67  A    between atoms: _176  and  _177
REMARK   68  A    between atoms: _177  and  _178
REMARK   69  A    between atoms: _182  and  _184
REMARK   70  A    between atoms: _184  and  _185
REMARK   71  A    between atoms: _184  and  _187
REMARK   72  A    between atoms: _187  and  _188
REMARK   73  A    between atoms: _191  and  _193
REMARK   74  A    between atoms: _193  and  _194
REMARK   75  A    between atoms: _193  and  _196
REMARK   76  A    between atoms: _196  and  _197
REMARK   77  A    between atoms: _204  and  _205
REMARK   78  A    between atoms: _210  and  _212
REMARK   79  A    between atoms: _212  and  _213
REMARK   80  A    between atoms: _212  and  _215
REMARK   81  A    between atoms: _215  and  _216
REMARK   82  A    between atoms: _219  and  _221
REMARK   83  A    between atoms: _221  and  _222
REMARK   84  A    between atoms: _221  and  _224
REMARK   85  A    between atoms: _224  and  _225
REMARK   86  A    between atoms: _228  and  _230
REMARK   87  A    between atoms: _230  and  _231
REMARK   88  A    between atoms: _230  and  _233
REMARK   89  A    between atoms: _233  and  _234
REMARK   90  A    between atoms: _238  and  _239
REMARK   91  A    between atoms: _244  and  _246
REMARK   92  A    between atoms: _246  and  _247
REMARK   93  A    between atoms: _250  and  _252
REMARK   94  A    between atoms: _252  and  _253
REMARK   95  A    between atoms: _252  and  _255
REMARK   96  A    between atoms: _255  and  _256
REMARK   97  A    between atoms: _262  and  _264
REMARK   98  A    between atoms: _264  and  _265
REMARK   99  A    between atoms: _267  and  _269
REMARK  100  A    between atoms: _269  and  _270
REMARK  101  A    between atoms: _273  and  _275
REMARK  102  A    between atoms: _275  and  _276
REMARK  103  A    between atoms: _275  and  _278
REMARK  104  A    between atoms: _278  and  _279
REMARK  105  A    between atoms: _282  and  _284
REMARK  106  A    between atoms: _284  and  _285
REMARK  107  A    between atoms: _284  and  _287
REMARK  108  A    between atoms: _287  and  _288
REMARK  109  A    between atoms: _290  and  _292
REMARK  110  A    between atoms: _292  and  _293
REMARK  111  A    between atoms: _292  and  _295
REMARK  112  A    between atoms: _295  and  _296
REMARK  113  A    between atoms: _296  and  _297
REMARK  114  A    between atoms: _297  and  _298
REMARK  115  A    between atoms: _307  and  _309
REMARK  116  A    between atoms: _309  and  _310
REMARK  117  A    between atoms: _309  and  _312
REMARK  118  A    between atoms: _312  and  _313
REMARK  119  A    between atoms: _313  and  _314
REMARK  120  A    between atoms: _317  and  _319
REMARK  121  A    between atoms: _319  and  _320
REMARK  122  A    between atoms: _319  and  _322
REMARK  123  A    between atoms: _322  and  _323
REMARK  124  A    between atoms: _326  and  _328
REMARK  125  A    between atoms: _328  and  _329
REMARK  126  A    between atoms: _328  and  _331
REMARK  127  A    between atoms: _331  and  _332
REMARK  128  A    between atoms: _335  and  _337
REMARK  129  A    between atoms: _337  and  _338
REMARK  130  A    between atoms: _337  and  _340
REMARK  131  A    between atoms: _340  and  _341
REMARK  132  A    between atoms: _341  and  _342
REMARK  133  A    between atoms: _342  and  _343
REMARK  134  A    between atoms: _352  and  _354
REMARK  135  A    between atoms: _354  and  _355
REMARK  136  A    between atoms: _354  and  _357
REMARK  137  A    between atoms: _357  and  _358
REMARK  138  A    between atoms: _358  and  _359
REMARK  139  A    between atoms: _362  and  _364
REMARK  140  A    between atoms: _364  and  _365
REMARK  141  A    between atoms: _368  and  _370
REMARK  142  A    between atoms: _370  and  _371
REMARK  143  A    between atoms: _370  and  _373
REMARK  144  A    between atoms: _373  and  _374
REMARK  145  A    between atoms: _374  and  _375
REMARK  146  A    between atoms: _375  and  _376
REMARK  147  A    between atoms: _385  and  _387
REMARK  148  A    between atoms: _387  and  _388
REMARK  149  A    between atoms: _387  and  _390
REMARK  150  A    between atoms: _390  and  _391
REMARK  151  A    between atoms: _391  and  _392
REMARK  152  A    between atoms: _392  and  _393
REMARK  153  A    between atoms: _402  and  _404
REMARK  154  A    between atoms: _404  and  _405
REMARK  155  A    between atoms: _404  and  _407
REMARK  156  A    between atoms: _407  and  _408
REMARK  157  A    between atoms: _411  and  _413
REMARK  158  A    between atoms: _413  and  _414
REMARK  159  A    between atoms: _413  and  _416
REMARK  160  A    between atoms: _416  and  _417
REMARK  161  A    between atoms: _420  and  _422
REMARK  162  A    between atoms: _422  and  _423
REMARK  163  A    between atoms: _426  and  _428
REMARK  164  A    between atoms: _428  and  _429
REMARK  165  A    between atoms: _428  and  _431
REMARK  166  A    between atoms: _431  and  _432
REMARK  167  A    between atoms: _432  and  _433
REMARK  168  A    between atoms: _438  and  _440
REMARK  169  A    between atoms: _440  and  _441
REMARK  170  A    between atoms: _445  and  _446
REMARK  171  A    between atoms: _451  and  _453
REMARK  172  A    between atoms: _453  and  _454
REMARK  173  A    between atoms: _453  and  _456
REMARK  174  A    between atoms: _456  and  _457
REMARK  175  A    between atoms: _457  and  _458
REMARK  176  A    between atoms: _458  and  _459
REMARK  177  A    between atoms: _459  and  _460
REMARK  178  A    between atoms: _464  and  _466
REMARK  179  A    between atoms: _466  and  _467
REMARK  180  A    between atoms: _466  and  _469
REMARK  181  A    between atoms: _469  and  _470
REMARK  182  A    between atoms: _470  and  _471
REMARK  183  A    between atoms: _473  and  _475
REMARK  184  A    between atoms: _475  and  _476
REMARK  185  A    between atoms: _475  and  _478
REMARK  186  A    between atoms: _478  and  _479
REMARK  187  A    between atoms: _483  and  _484
REMARK  188  A    between atoms: _489  and  _491
REMARK  189  A    between atoms: _491  and  _492
REMARK  190  A    between atoms: _491  and  _494
REMARK  191  A    between atoms: _494  and  _495
REMARK  192  A    between atoms: _500  and  _502
REMARK  193  A    between atoms: _502  and  _503
REMARK  194  A    between atoms: _502  and  _505
REMARK  195  A    between atoms: _505  and  _506
REMARK  196  A    between atoms: _509  and  _511
REMARK  197  A    between atoms: _511  and  _512
REMARK  198  A    between atoms: _511  and  _514
REMARK  199  A    between atoms: _517  and  _519
REMARK  200  A    between atoms: _519  and  _520
REMARK  201  A    between atoms: _519  and  _522
REMARK  202  A    between atoms: _522  and  _523
REMARK  203  A    between atoms: _523  and  _524
REMARK  204  A    between atoms: _524  and  _525
REMARK  205  A    between atoms: _525  and  _526
REMARK  206  A    between atoms: _530  and  _532
REMARK  207  A    between atoms: _532  and  _533
REMARK  208  A    between atoms: _536  and  _538
REMARK  209  A    between atoms: _538  and  _539
REMARK  210  A    between atoms: _538  and  _541
REMARK  211  A    between atoms: _541  and  _542
REMARK  212  A    between atoms: _545  and  _547
REMARK  213  A    between atoms: _547  and  _548
REMARK  214  A    between atoms: _547  and  _550
REMARK  215  A    between atoms: _550  and  _551
REMARK  216  A    between atoms: _554  and  _556
REMARK  217  A    between atoms: _556  and  _557
REMARK  218  A    between atoms: _556  and  _559
REMARK  219  A    between atoms: _559  and  _560
REMARK  220  A    between atoms: _563  and  _565
REMARK  221  A    between atoms: _565  and  _566
REMARK  222  A    between atoms: _565  and  _568
REMARK  223  A    between atoms: _568  and  _569
REMARK  224  A    between atoms: _569  and  _570
REMARK  225  A    between atoms: _573  and  _575
REMARK  226  A    between atoms: _575  and  _576
REMARK  227  A    between atoms: _575  and  _578
REMARK  228  A    between atoms: _578  and  _579
REMARK  229  A    between atoms: _579  and  _580
REMARK  230  A    between atoms: _580  and  _581
REMARK  231  A    between atoms: _581  and  _582
REMARK  232  A    between atoms: _586  and  _588
REMARK  233  A    between atoms: _588  and  _589
REMARK  234  A    between atoms: _588  and  _591
REMARK  235  A    between atoms: _591  and  _592
REMARK                            x       y       z     vdW  Elec       q    Type
REMARK                         _______ _______ _______ _____ _____    ______ ____
ROOT
ATOM      1  C   SER A   4      -0.492  19.772  30.490  0.00  0.00    +0.243 C 
ATOM      2  N   ASP A   5      -0.015  21.010  30.576  0.00  0.00    -0.296 N 
ATOM      3  H   ASP A   5       0.455  21.312  31.453  0.00  0.00    +0.150 HD
ATOM      4  O   SER A   4      -1.515  19.490  29.867  0.00  0.00    -0.273 OA
ENDROOT
BRANCH   2   5
ATOM      5  CA  ASP A   5      -0.134  21.955  29.473  0.00  0.00    +0.160 C 
BRANCH   5   6
ATOM      6  C   ASP A   5      -0.016  21.250  28.126  0.00  0.00    +0.241 C 
ATOM      7  N   GLY A   6       1.007  20.412  27.991  0.00  0.00    -0.295 N 
ATOM      8  H   GLY A   6       1.402  19.954  28.837  0.00  0.00    +0.150 HD
ATOM      9  O   ASP A   5      -0.833  21.460  27.230  0.00  0.00    -0.273 OA
BRANCH   7  10
ATOM     10  CA  GLY A   6       1.587  20.120  26.693  0.00  0.00    +0.176 C 
BRANCH  10  11
ATOM     11  C   GLY A   6       2.559  21.190  26.238  0.00  0.00    +0.243 C 
ATOM     12  N   ASP A   7       2.943  22.065  27.161  0.00  0.00    -0.296 N 
ATOM     13  H   ASP A   7       2.532  22.009  28.115  0.00  0.00    +0.150 HD
ATOM     14  O   GLY A   6       2.957  21.226  25.073  0.00  0.00    -0.273 OA
BRANCH  12  15
ATOM     15  CA  ASP A   7       3.926  23.102  26.872  0.00  0.00    +0.160 C 
BRANCH  15  16
ATOM     16  C   ASP A   7       5.307  22.501  26.630  0.00  0.00    +0.241 C 
ATOM     17  O   ASP A   7       6.046  22.219  27.573  0.00  0.00    -0.273 OA
ATOM     18  N   VAL A   8       5.648  22.308  25.360  0.00  0.00    -0.298 N 
ATOM     19  H   VAL A   8       4.993  22.605  24.609  0.00  0.00    +0.150 HD
BRANCH  18  20
ATOM     20  CA  VAL A   8       6.917  21.690  24.993  0.00  0.00    +0.137 C 
BRANCH  20  21
ATOM     21  CB  VAL A   8       6.877  21.127  23.560  0.00  0.00    +0.026 C 
ATOM     22  CG2 VAL A   8       5.816  20.043  23.446  0.00  0.00    +0.002 C 
ATOM     23  CG1 VAL A   8       6.619  22.243  22.559  0.00  0.00    +0.002 C 
ENDBRANCH  20  21
BRANCH  20  24
ATOM     24  C   VAL A   8       8.068  22.684  25.106  0.00  0.00    +0.227 C 
ATOM     25  O   VAL A   8       9.222  22.294  25.282  0.00  0.00    -0.286 OA
ENDBRANCH  20  24
ENDBRANCH  18  20
ENDBRANCH  15  16
BRANCH  15  26
ATOM     26  CB  ASP A   7       3.987  24.116  28.015  0.00  0.00    +0.143 C 
BRANCH  26  27
ATOM     27  CG  ASP A   7       4.334  25.513  27.538  0.00  0.00    +0.367 C 
ATOM     28  OD2 ASP A   7       3.768  26.485  28.079  0.00  0.00    -0.246 OA
ATOM     29  OD1 ASP A   7       5.173  25.638  26.620  0.00  0.00    -0.246 OA
ENDBRANCH  26  27
ENDBRANCH  15  26
ENDBRANCH  12  15
ENDBRANCH  10  11
ENDBRANCH   7  10
ENDBRANCH   5   6
BRANCH   5  30
ATOM     30  CB  ASP A   5       0.930  23.049  29.588  0.00  0.00    +0.143 C 
BRANCH  30  31
ATOM     31  CG  ASP A   5       0.475  24.216  30.443  0.00  0.00    +0.367 C 
ATOM     32  OD2 ASP A   5      -0.658  24.165  30.967  0.00  0.00    -0.246 OA
ATOM     33  OD1 ASP A   5       1.250  25.184  30.591  0.00  0.00    -0.246 OA
ENDBRANCH  30  31
ENDBRANCH   5  30
ENDBRANCH   2   5
BRANCH   1  34
ATOM     34  CA  SER A   4       0.305  18.692  31.215  0.00  0.00    +0.178 C 
BRANCH  34  37
ATOM     35  C   HIS A   3      -0.869  16.562  31.333  0.00  0.00    +0.241 C 
ATOM     36  O   HIS A   3      -1.691  16.961  32.140  0.00  0.00    -0.273 OA
ATOM     37  N   SER A   4      -0.019  17.366  30.703  0.00  0.00    -0.295 N 
ATOM     38  H   SER A   4       0.427  17.041  29.821  0.00  0.00    +0.150 HD
BRANCH  35  39
ATOM     39  CA  HIS A   3      -0.777  15.095  31.004  0.00  0.00    +0.155 C 
BRANCH  39  41
ATOM     40  C   ALA A   2      -1.198  15.269  28.595  0.00  0.00    +0.241 C 
ATOM     41  N   HIS A   3      -0.451  14.856  29.611  0.00  0.00    -0.297 N 
ATOM     42  H   HIS A   3       0.420  14.330  29.396  0.00  0.00    +0.150 HD
ATOM     43  O   ALA A   2      -2.391  15.508  28.680  0.00  0.00    -0.273 OA
BRANCH  40  44
ATOM     44  CA  ALA A   2      -0.461  15.408  27.279  0.00  0.00    +0.149 C 
ATOM     45  CB  ALA A   2       0.520  16.507  27.333  0.00  0.00    +0.031 C 
BRANCH  44  47
ATOM     46  C   LEU A   1      -0.808  15.637  24.917  0.00  0.00    +0.238 C 
ATOM     47  N   ALA A   2      -1.315  15.567  26.137  0.00  0.00    -0.297 N 
ATOM     48  H   ALA A   2      -2.345  15.628  26.270  0.00  0.00    +0.150 HD
ATOM     49  O   LEU A   1       0.403  15.737  24.686  0.00  0.00    -0.274 OA
BRANCH  46  50
ATOM     50  CA  LEU A   1      -1.816  15.648  23.779  0.00  0.00    +0.145 C 
BRANCH  50  51
ATOM     51  N   LEU A   1      -1.596  16.785  22.888  0.00  0.00    -0.238 NA
ATOM     52  H   LEU A   1      -1.243  16.599  21.928  0.00  0.00    +0.142 HD
ENDBRANCH  50  51
BRANCH  50  53
ATOM     53  CB  LEU A   1      -1.717  14.325  23.016  0.00  0.00    +0.026 C 
BRANCH  53  54
ATOM     54  CG  LEU A   1      -2.891  13.912  22.126  0.00  0.00    +0.002 C 
ATOM     55  CD2 LEU A   1      -4.248  14.092  22.835  0.00  0.00    +0.000 C 
ATOM     56  CD1 LEU A   1      -2.703  12.466  21.661  0.00  0.00    +0.000 C 
ENDBRANCH  53  54
ENDBRANCH  50  53
ENDBRANCH  46  50
ENDBRANCH  44  47
ENDBRANCH  40  44
ENDBRANCH  39  41
BRANCH  39  57
ATOM     57  CB  HIS A   3       0.284  14.468  31.879  0.00  0.00    +0.076 C 
BRANCH  57  58
ATOM     58  CG  HIS A   3      -0.256  13.559  32.937  0.00  0.00    +0.082 A 
ATOM     59  ND1 HIS A   3       0.369  13.381  34.152  0.00  0.00    -0.227 NA
ATOM     60  CE1 HIS A   3      -0.318  12.517  34.875  0.00  0.00    +0.199 A 
ATOM     61  NE2 HIS A   3      -1.366  12.133  34.173  0.00  0.00    -0.221 NA
ATOM     62  CD2 HIS A   3      -1.350  12.765  32.957  0.00  0.00    +0.115 A 
ENDBRANCH  57  58
ENDBRANCH  39  57
ENDBRANCH  35  39
ENDBRANCH  34  37
BRANCH  34  63
ATOM     63  CB  SER A   4       1.804  18.966  31.083  0.00  0.00    +0.166 C 
BRANCH  63  64
ATOM     64  OG  SER A   4       2.214  18.920  29.727  0.00  0.00    -0.380 OA
ATOM     65  H   SER A   4       3.186  19.100  29.671  0.00  0.00    +0.211 HD
ENDBRANCH  63  64
ENDBRANCH  34  63
ENDBRANCH   1  34
TORSDOF 27
REMARK  Name = ../refined-set-2016/2gzl/2gzl_pocket.pdb
REMARK  235 active torsions:
REMARK  status: ('A' for Active; 'I' for Inactive)
REMARK    1  A    between atoms: _1  and  _3
REMARK    2  A    between atoms: _3  and  _4
REMARK    3  A    between atoms: _3  and  _6
REMARK    4  A    between atoms: _6  and  _7
REMARK    5  A    between atoms: _13  and  _15
REMARK    6  A    between atoms: _24  and  _27
REMARK    7  A    between atoms: _32  and  _33
REMARK    8  A    between atoms: _41  and  _43
REMARK    9  A    between atoms: _43  and  _44
REMARK   10  A    between atoms: _43  and  _46
REMARK   11  A    between atoms: _46  and  _47
REMARK   12  A    between atoms: _50  and  _52
REMARK   13  A    between atoms: _52  and  _53
REMARK   14  A    between atoms: _56  and  _58
REMARK   15  A    between atoms: _58  and  _59
REMARK   16  A    between atoms: _58  and  _61
REMARK   17  A    between atoms: _61  and  _62
REMARK   18  A    between atoms: _67  and  _69
REMARK   19  A    between atoms: _69  and  _70
REMARK   20  A    between atoms: _69  and  _72
REMARK   21  A    between atoms: _72  and  _73
REMARK   22  A    between atoms: _75  and  _77
REMARK   23  A    between atoms: _77  and  _78
REMARK   24  A    between atoms: _77  and  _80
REMARK   25  A    between atoms: _80  and  _81
REMARK   26  A    between atoms: _84  and  _86
REMARK   27  A    between atoms: _86  and  _87
REMARK   28  A    between atoms: _89  and  _91
REMARK   29  A    between atoms: _91  and  _92
REMARK   30  A    between atoms: _91  and  _94
REMARK   31  A    between atoms: _94  and  _95
REMARK   32  A    between atoms: _98  and  _100
REMARK   33  A    between atoms: _100  and  _101
REMARK   34  A    between atoms: _100  and  _103
REMARK   35  A    between atoms: _106  and  _108
REMARK   36  A    between atoms: _108  and  _109
REMARK   37  A    between atoms: _108  and  _111
REMARK   38  A    between atoms: _111  and  _112
REMARK   39  A    between atoms: _113  and  ZN_595
REMARK   40  A    between atoms: _117  and  _119
REMARK   41  A    between atoms: _119  and  _120
REMARK   42  A    between atoms: _123  and  _125
REMARK   43  A    between atoms: _125  and  _126
REMARK   44  A    between atoms: _125  and  _128
REMARK   45  A    between atoms: _128  and  _129
REMARK   46  A    between atoms: _132  and  _134
REMARK   47  A    between atoms: _134  and  _135
REMARK   48  A    between atoms: _134  and  _137
REMARK   49  A    between atoms: _137  and  _138
REMARK   50  A    between atoms: _141  and  _143
REMARK   51  A    between atoms: _143  and  _144
REMARK   52  A    between atoms: _146  and  _148
REMARK   53  A    between atoms: _148  and  _149
REMARK   54  A    between atoms: _148  and  _151
REMARK   55  A    between atoms: _151  and  _152
REMARK   56  A    between atoms: _155  and  _157
REMARK   57  A    between atoms: _157  and  _158
REMARK   58  A    between atoms: _157  and  _160
REMARK   59  A    between atoms: _160  and  _161
REMARK   60  A    between atoms: _164  and  _166
REMARK   61  A    between atoms: _166  and  _167
REMARK   62  A    between atoms: _169  and  _171
REMARK   63  A    between atoms: _171  and  _172
REMARK   64  A    between atoms: _171  and  _174
REMARK   65  A    between atoms: _174  and  _175
REMARK   66  A    between atoms: _175  and  _176
REMARK   67  A    between atoms: _176  and  _177
REMARK   68  A    between atoms: _177  and  _178
REMARK   69  A    between atoms: _182  and  _184
REMARK   70  A    between atoms: _184  and  _185
REMARK   71  A    between atoms: _184  and  _187
REMARK   72  A    between atoms: _187  and  _188
REMARK   73  A    between atoms: _191  and  _193
REMARK   74  A    between atoms: _193  and  _194
REMARK   75  A    between atoms: _193  and  _196
REMARK   76  A    between atoms: _196  and  _197
REMARK   77  A    between atoms: _204  and  _205
REMARK   78  A    between atoms: _210  and  _212
REMARK   79  A    between atoms: _212  and  _213
REMARK   80  A    between atoms: _212  and  _215
REMARK   81  A    between atoms: _215  and  _216
REMARK   82  A    between atoms: _219  and  _221
REMARK   83  A    between atoms: _221  and  _222
REMARK   84  A    between atoms: _221  and  _224
REMARK   85  A    between atoms: _224  and  _225
REMARK   86  A    between atoms: _228  and  _230
REMARK   87  A    between atoms: _230  and  _231
REMARK   88  A    between atoms: _230  and  _233
REMARK   89  A    between atoms: _233  and  _234
REMARK   90  A    between atoms: _238  and  _239
REMARK   91  A    between atoms: _244  and  _246
REMARK   92  A    between atoms: _246  and  _247
REMARK   93  A    between atoms: _250  and  _252
REMARK   94  A    between atoms: _252  and  _253
REMARK   95  A    between atoms: _252  and  _255
REMARK   96  A    between atoms: _255  and  _256
REMARK   97  A    between atoms: _262  and  _264
REMARK   98  A    between atoms: _264  and  _265
REMARK   99  A    between atoms: _267  and  _269
REMARK  100  A    between atoms: _269  and  _270
REMARK  101  A    between atoms: _273  and  _275
REMARK  102  A    between atoms: _275  and  _276
REMARK  103  A    between atoms: _275  and  _278
REMARK  104  A    between atoms: _278  and  _279
REMARK  105  A    between atoms: _282  and  _284
REMARK  106  A    between atoms: _284  and  _285
REMARK  107  A    between atoms: _284  and  _287
REMARK  108  A    between atoms: _287  and  _288
REMARK  109  A    between atoms: _290  and  _292
REMARK  110  A    between atoms: _292  and  _293
REMARK  111  A    between atoms: _292  and  _295
REMARK  112  A    between atoms: _295  and  _296
REMARK  113  A    between atoms: _296  and  _297
REMARK  114  A    between atoms: _297  and  _298
REMARK  115  A    between atoms: _307  and  _309
REMARK  116  A    between atoms: _309  and  _310
REMARK  117  A    between atoms: _309  and  _312
REMARK  118  A    between atoms: _312  and  _313
REMARK  119  A    between atoms: _313  and  _314
REMARK  120  A    between atoms: _317  and  _319
REMARK  121  A    between atoms: _319  and  _320
REMARK  122  A    between atoms: _319  and  _322
REMARK  123  A    between atoms: _322  and  _323
REMARK  124  A    between atoms: _326  and  _328
REMARK  125  A    between atoms: _328  and  _329
REMARK  126  A    between atoms: _328  and  _331
REMARK  127  A    between atoms: _331  and  _332
REMARK  128  A    between atoms: _335  and  _337
REMARK  129  A    between atoms: _337  and  _338
REMARK  130  A    between atoms: _337  and  _340
REMARK  131  A    between atoms: _340  and  _341
REMARK  132  A    between atoms: _341  and  _342
REMARK  133  A    between atoms: _342  and  _343
REMARK  134  A    between atoms: _352  and  _354
REMARK  135  A    between atoms: _354  and  _355
REMARK  136  A    between atoms: _354  and  _357
REMARK  137  A    between atoms: _357  and  _358
REMARK  138  A    between atoms: _358  and  _359
REMARK  139  A    between atoms: _362  and  _364
REMARK  140  A    between atoms: _364  and  _365
REMARK  141  A    between atoms: _368  and  _370
REMARK  142  A    between atoms: _370  and  _371
REMARK  143  A    between atoms: _370  and  _373
REMARK  144  A    between atoms: _373  and  _374
REMARK  145  A    between atoms: _374  and  _375
REMARK  146  A    between atoms: _375  and  _376
REMARK  147  A    between atoms: _385  and  _387
REMARK  148  A    between atoms: _387  and  _388
REMARK  149  A    between atoms: _387  and  _390
REMARK  150  A    between atoms: _390  and  _391
REMARK  151  A    between atoms: _391  and  _392
REMARK  152  A    between atoms: _392  and  _393
REMARK  153  A    between atoms: _402  and  _404
REMARK  154  A    between atoms: _404  and  _405
REMARK  155  A    between atoms: _404  and  _407
REMARK  156  A    between atoms: _407  and  _408
REMARK  157  A    between atoms: _411  and  _413
REMARK  158  A    between atoms: _413  and  _414
REMARK  159  A    between atoms: _413  and  _416
REMARK  160  A    between atoms: _416  and  _417
REMARK  161  A    between atoms: _420  and  _422
REMARK  162  A    between atoms: _422  and  _423
REMARK  163  A    between atoms: _426  and  _428
REMARK  164  A    between atoms: _428  and  _429
REMARK  165  A    between atoms: _428  and  _431
REMARK  166  A    between atoms: _431  and  _432
REMARK  167  A    between atoms: _432  and  _433
REMARK  168  A    between atoms: _438  and  _440
REMARK  169  A    between atoms: _440  and  _441
REMARK  170  A    between atoms: _445  and  _446
REMARK  171  A    between atoms: _451  and  _453
REMARK  172  A    between atoms: _453  and  _454
REMARK  173  A    between atoms: _453  and  _456
REMARK  174  A    between atoms: _456  and  _457
REMARK  175  A    between atoms: _457  and  _458
REMARK  176  A    between atoms: _458  and  _459
REMARK  177  A    between atoms: _459  and  _460
REMARK  178  A    between atoms: _464  and  _466
REMARK  179  A    between atoms: _466  and  _467
REMARK  180  A    between atoms: _466  and  _469
REMARK  181  A    between atoms: _469  and  _470
REMARK  182  A    between atoms: _470  and  _471
REMARK  183  A    between atoms: _473  and  _475
REMARK  184  A    between atoms: _475  and  _476
REMARK  185  A    between atoms: _475  and  _478
REMARK  186  A    between atoms: _478  and  _479
REMARK  187  A    between atoms: _483  and  _484
REMARK  188  A    between atoms: _489  and  _491
REMARK  189  A    between atoms: _491  and  _492
REMARK  190  A    between atoms: _491  and  _494
REMARK  191  A    between atoms: _494  and  _495
REMARK  192  A    between atoms: _500  and  _502
REMARK  193  A    between atoms: _502  and  _503
REMARK  194  A    between atoms: _502  and  _505
REMARK  195  A    between atoms: _505  and  _506
REMARK  196  A    between atoms: _509  and  _511
REMARK  197  A    between atoms: _511  and  _512
REMARK  198  A    between atoms: _511  and  _514
REMARK  199  A    between atoms: _517  and  _519
REMARK  200  A    between atoms: _519  and  _520
REMARK  201  A    between atoms: _519  and  _522
REMARK  202  A    between atoms: _522  and  _523
REMARK  203  A    between atoms: _523  and  _524
REMARK  204  A    between atoms: _524  and  _525
REMARK  205  A    between atoms: _525  and  _526
REMARK  206  A    between atoms: _530  and  _532
REMARK  207  A    between atoms: _532  and  _533
REMARK  208  A    between atoms: _536  and  _538
REMARK  209  A    between atoms: _538  and  _539
REMARK  210  A    between atoms: _538  and  _541
REMARK  211  A    between atoms: _541  and  _542
REMARK  212  A    between atoms: _545  and  _547
REMARK  213  A    between atoms: _547  and  _548
REMARK  214  A    between atoms: _547  and  _550
REMARK  215  A    between atoms: _550  and  _551
REMARK  216  A    between atoms: _554  and  _556
REMARK  217  A    between atoms: _556  and  _557
REMARK  218  A    between atoms: _556  and  _559
REMARK  219  A    between atoms: _559  and  _560
REMARK  220  A    between atoms: _563  and  _565
REMARK  221  A    between atoms: _565  and  _566
REMARK  222  A    between atoms: _565  and  _568
REMARK  223  A    between atoms: _568  and  _569
REMARK  224  A    between atoms: _569  and  _570
REMARK  225  A    between atoms: _573  and  _575
REMARK  226  A    between atoms: _575  and  _576
REMARK  227  A    between atoms: _575  and  _578
REMARK  228  A    between atoms: _578  and  _579
REMARK  229  A    between atoms: _579  and  _580
REMARK  230  A    between atoms: _580  and  _581
REMARK  231  A    between atoms: _581  and  _582
REMARK  232  A    between atoms: _586  and  _588
REMARK  233  A    between atoms: _588  and  _589
REMARK  234  A    between atoms: _588  and  _591
REMARK  235  A    between atoms: _591  and  _592
REMARK                            x       y       z     vdW  Elec       q    Type
REMARK                         _______ _______ _______ _____ _____    ______ ____
ROOT
ATOM      1  C   THR A   1      13.900  22.374  32.667  0.00  0.00    +0.241 C 
ATOM      2  O   THR A   1      14.745  22.463  33.558  0.00  0.00    -0.274 OA
ATOM      3  N   ASP A   2      13.923  21.425  31.734  0.00  0.00    -0.298 N 
ATOM      4  H   ASP A   2      13.157  21.385  31.032  0.00  0.00    +0.150 HD
ENDROOT
BRANCH   1   5
ATOM      5  CA  THR A   1      12.789  23.412  32.567  0.00  0.00    +0.172 C 
BRANCH   5   6
ATOM      6  N   THR A   1      12.701  23.920  31.210  0.00  0.00    -0.236 NA
ATOM      7  H   THR A   1      11.807  23.819  30.688  0.00  0.00    +0.142 HD
ENDBRANCH   5   6
BRANCH   5   8
ATOM      8  CB  THR A   1      11.427  22.869  33.069  0.00  0.00    +0.135 C 
ATOM      9  CG2 THR A   1      11.550  22.378  34.498  0.00  0.00    +0.034 C 
BRANCH   8  10
ATOM     10  OG1 THR A   1      10.464  23.933  33.045  0.00  0.00    -0.383 OA
ATOM     11  HG1 THR A   1      10.369  24.270  32.119  0.00  0.00    +0.210 HD
ENDBRANCH   8  10
ENDBRANCH   5   8
ENDBRANCH   1   5
BRANCH   3  12
ATOM     12  CA  ASP A   2      15.001  20.437  31.672  0.00  0.00    +0.148 C 
BRANCH  12  13
ATOM     13  C   ASP A   2      16.385  21.051  31.479  0.00  0.00    +0.227 C 
ATOM     14  O   ASP A   2      17.363  20.540  32.035  0.00  0.00    -0.286 OA
ENDBRANCH  12  13
BRANCH  12  15
ATOM     15  CB  ASP A   2      14.740  19.398  30.582  0.00  0.00    +0.142 C 
BRANCH  15  16
ATOM     16  CG  ASP A   2      13.848  18.264  31.056  0.00  0.00    +0.367 C 
ATOM     17  OD2 ASP A   2      13.514  18.225  32.260  0.00  0.00    -0.246 OA
ATOM     18  OD1 ASP A   2      13.490  17.399  30.221  0.00  0.00    -0.246 OA
ENDBRANCH  15  16
ENDBRANCH  12  15
ENDBRANCH   3  12
TORSDOF 8
REMARK  Name = ../refined-set-2016/2gzl/2gzl_pocket.pdb
REMARK  235 active torsions:
REMARK  status: ('A' for Active; 'I' for Inactive)
REMARK    1  A    between atoms: _1  and  _3
REMARK    2  A    between atoms: _3  and  _4
REMARK    3  A    between atoms: _3  and  _6
REMARK    4  A    between atoms: _6  and  _7
REMARK    5  A    between atoms: _13  and  _15
REMARK    6  A    between atoms: _24  and  _27
REMARK    7  A    between atoms: _32  and  _33
REMARK    8  A    between atoms: _41  and  _43
REMARK    9  A    between atoms: _43  and  _44
REMARK   10  A    between atoms: _43  and  _46
REMARK   11  A    between atoms: _46  and  _47
REMARK   12  A    between atoms: _50  and  _52
REMARK   13  A    between atoms: _52  and  _53
REMARK   14  A    between atoms: _56  and  _58
REMARK   15  A    between atoms: _58  and  _59
REMARK   16  A    between atoms: _58  and  _61
REMARK   17  A    between atoms: _61  and  _62
REMARK   18  A    between atoms: _67  and  _69
REMARK   19  A    between atoms: _69  and  _70
REMARK   20  A    between atoms: _69  and  _72
REMARK   21  A    between atoms: _72  and  _73
REMARK   22  A    between atoms: _75  and  _77
REMARK   23  A    between atoms: _77  and  _78
REMARK   24  A    between atoms: _77  and  _80
REMARK   25  A    between atoms: _80  and  _81
REMARK   26  A    between atoms: _84  and  _86
REMARK   27  A    between atoms: _86  and  _87
REMARK   28  A    between atoms: _89  and  _91
REMARK   29  A    between atoms: _91  and  _92
REMARK   30  A    between atoms: _91  and  _94
REMARK   31  A    between atoms: _94  and  _95
REMARK   32  A    between atoms: _98  and  _100
REMARK   33  A    between atoms: _100  and  _101
REMARK   34  A    between atoms: _100  and  _103
REMARK   35  A    between atoms: _106  and  _108
REMARK   36  A    between atoms: _108  and  _109
REMARK   37  A    between atoms: _108  and  _111
REMARK   38  A    between atoms: _111  and  _112
REMARK   39  A    between atoms: _113  and  ZN_595
REMARK   40  A    between atoms: _117  and  _119
REMARK   41  A    between atoms: _119  and  _120
REMARK   42  A    between atoms: _123  and  _125
REMARK   43  A    between atoms: _125  and  _126
REMARK   44  A    between atoms: _125  and  _128
REMARK   45  A    between atoms: _128  and  _129
REMARK   46  A    between atoms: _132  and  _134
REMARK   47  A    between atoms: _134  and  _135
REMARK   48  A    between atoms: _134  and  _137
REMARK   49  A    between atoms: _137  and  _138
REMARK   50  A    between atoms: _141  and  _143
REMARK   51  A    between atoms: _143  and  _144
REMARK   52  A    between atoms: _146  and  _148
REMARK   53  A    between atoms: _148  and  _149
REMARK   54  A    between atoms: _148  and  _151
REMARK   55  A    between atoms: _151  and  _152
REMARK   56  A    between atoms: _155  and  _157
REMARK   57  A    between atoms: _157  and  _158
REMARK   58  A    between atoms: _157  and  _160
REMARK   59  A    between atoms: _160  and  _161
REMARK   60  A    between atoms: _164  and  _166
REMARK   61  A    between atoms: _166  and  _167
REMARK   62  A    between atoms: _169  and  _171
REMARK   63  A    between atoms: _171  and  _172
REMARK   64  A    between atoms: _171  and  _174
REMARK   65  A    between atoms: _174  and  _175
REMARK   66  A    between atoms: _175  and  _176
REMARK   67  A    between atoms: _176  and  _177
REMARK   68  A    between atoms: _177  and  _178
REMARK   69  A    between atoms: _182  and  _184
REMARK   70  A    between atoms: _184  and  _185
REMARK   71  A    between atoms: _184  and  _187
REMARK   72  A    between atoms: _187  and  _188
REMARK   73  A    between atoms: _191  and  _193
REMARK   74  A    between atoms: _193  and  _194
REMARK   75  A    between atoms: _193  and  _196
REMARK   76  A    between atoms: _196  and  _197
REMARK   77  A    between atoms: _204  and  _205
REMARK   78  A    between atoms: _210  and  _212
REMARK   79  A    between atoms: _212  and  _213
REMARK   80  A    between atoms: _212  and  _215
REMARK   81  A    between atoms: _215  and  _216
REMARK   82  A    between atoms: _219  and  _221
REMARK   83  A    between atoms: _221  and  _222
REMARK   84  A    between atoms: _221  and  _224
REMARK   85  A    between atoms: _224  and  _225
REMARK   86  A    between atoms: _228  and  _230
REMARK   87  A    between atoms: _230  and  _231
REMARK   88  A    between atoms: _230  and  _233
REMARK   89  A    between atoms: _233  and  _234
REMARK   90  A    between atoms: _238  and  _239
REMARK   91  A    between atoms: _244  and  _246
REMARK   92  A    between atoms: _246  and  _247
REMARK   93  A    between atoms: _250  and  _252
REMARK   94  A    between atoms: _252  and  _253
REMARK   95  A    between atoms: _252  and  _255
REMARK   96  A    between atoms: _255  and  _256
REMARK   97  A    between atoms: _262  and  _264
REMARK   98  A    between atoms: _264  and  _265
REMARK   99  A    between atoms: _267  and  _269
REMARK  100  A    between atoms: _269  and  _270
REMARK  101  A    between atoms: _273  and  _275
REMARK  102  A    between atoms: _275  and  _276
REMARK  103  A    between atoms: _275  and  _278
REMARK  104  A    between atoms: _278  and  _279
REMARK  105  A    between atoms: _282  and  _284
REMARK  106  A    between atoms: _284  and  _285
REMARK  107  A    between atoms: _284  and  _287
REMARK  108  A    between atoms: _287  and  _288
REMARK  109  A    between atoms: _290  and  _292
REMARK  110  A    between atoms: _292  and  _293
REMARK  111  A    between atoms: _292  and  _295
REMARK  112  A    between atoms: _295  and  _296
REMARK  113  A    between atoms: _296  and  _297
REMARK  114  A    between atoms: _297  and  _298
REMARK  115  A    between atoms: _307  and  _309
REMARK  116  A    between atoms: _309  and  _310
REMARK  117  A    between atoms: _309  and  _312
REMARK  118  A    between atoms: _312  and  _313
REMARK  119  A    between atoms: _313  and  _314
REMARK  120  A    between atoms: _317  and  _319
REMARK  121  A    between atoms: _319  and  _320
REMARK  122  A    between atoms: _319  and  _322
REMARK  123  A    between atoms: _322  and  _323
REMARK  124  A    between atoms: _326  and  _328
REMARK  125  A    between atoms: _328  and  _329
REMARK  126  A    between atoms: _328  and  _331
REMARK  127  A    between atoms: _331  and  _332
REMARK  128  A    between atoms: _335  and  _337
REMARK  129  A    between atoms: _337  and  _338
REMARK  130  A    between atoms: _337  and  _340
REMARK  131  A    between atoms: _340  and  _341
REMARK  132  A    between atoms: _341  and  _342
REMARK  133  A    between atoms: _342  and  _343
REMARK  134  A    between atoms: _352  and  _354
REMARK  135  A    between atoms: _354  and  _355
REMARK  136  A    between atoms: _354  and  _357
REMARK  137  A    between atoms: _357  and  _358
REMARK  138  A    between atoms: _358  and  _359
REMARK  139  A    between atoms: _362  and  _364
REMARK  140  A    between atoms: _364  and  _365
REMARK  141  A    between atoms: _368  and  _370
REMARK  142  A    between atoms: _370  and  _371
REMARK  143  A    between atoms: _370  and  _373
REMARK  144  A    between atoms: _373  and  _374
REMARK  145  A    between atoms: _374  and  _375
REMARK  146  A    between atoms: _375  and  _376
REMARK  147  A    between atoms: _385  and  _387
REMARK  148  A    between atoms: _387  and  _388
REMARK  149  A    between atoms: _387  and  _390
REMARK  150  A    between atoms: _390  and  _391
REMARK  151  A    between atoms: _391  and  _392
REMARK  152  A    between atoms: _392  and  _393
REMARK  153  A    between atoms: _402  and  _404
REMARK  154  A    between atoms: _404  and  _405
REMARK  155  A    between atoms: _404  and  _407
REMARK  156  A    between atoms: _407  and  _408
REMARK  157  A    between atoms: _411  and  _413
REMARK  158  A    between atoms: _413  and  _414
REMARK  159  A    between atoms: _413  and  _416
REMARK  160  A    between atoms: _416  and  _417
REMARK  161  A    between atoms: _420  and  _422
REMARK  162  A    between atoms: _422  and  _423
REMARK  163  A    between atoms: _426  and  _428
REMARK  164  A    between atoms: _428  and  _429
REMARK  165  A    between atoms: _428  and  _431
REMARK  166  A    between atoms: _431  and  _432
REMARK  167  A    between atoms: _432  and  _433
REMARK  168  A    between atoms: _438  and  _440
REMARK  169  A    between atoms: _440  and  _441
REMARK  170  A    between atoms: _445  and  _446
REMARK  171  A    between atoms: _451  and  _453
REMARK  172  A    between atoms: _453  and  _454
REMARK  173  A    between atoms: _453  and  _456
REMARK  174  A    between atoms: _456  and  _457
REMARK  175  A    between atoms: _457  and  _458
REMARK  176  A    between atoms: _458  and  _459
REMARK  177  A    between atoms: _459  and  _460
REMARK  178  A    between atoms: _464  and  _466
REMARK  179  A    between atoms: _466  and  _467
REMARK  180  A    between atoms: _466  and  _469
REMARK  181  A    between atoms: _469  and  _470
REMARK  182  A    between atoms: _470  and  _471
REMARK  183  A    between atoms: _473  and  _475
REMARK  184  A    between atoms: _475  and  _476
REMARK  185  A    between atoms: _475  and  _478
REMARK  186  A    between atoms: _478  and  _479
REMARK  187  A    between atoms: _483  and  _484
REMARK  188  A    between atoms: _489  and  _491
REMARK  189  A    between atoms: _491  and  _492
REMARK  190  A    between atoms: _491  and  _494
REMARK  191  A    between atoms: _494  and  _495
REMARK  192  A    between atoms: _500  and  _502
REMARK  193  A    between atoms: _502  and  _503
REMARK  194  A    between atoms: _502  and  _505
REMARK  195  A    between atoms: _505  and  _506
REMARK  196  A    between atoms: _509  and  _511
REMARK  197  A    between atoms: _511  and  _512
REMARK  198  A    between atoms: _511  and  _514
REMARK  199  A    between atoms: _517  and  _519
REMARK  200  A    between atoms: _519  and  _520
REMARK  201  A    between atoms: _519  and  _522
REMARK  202  A    between atoms: _522  and  _523
REMARK  203  A    between atoms: _523  and  _524
REMARK  204  A    between atoms: _524  and  _525
REMARK  205  A    between atoms: _525  and  _526
REMARK  206  A    between atoms: _530  and  _532
REMARK  207  A    between atoms: _532  and  _533
REMARK  208  A    between atoms: _536  and  _538
REMARK  209  A    between atoms: _538  and  _539
REMARK  210  A    between atoms: _538  and  _541
REMARK  211  A    between atoms: _541  and  _542
REMARK  212  A    between atoms: _545  and  _547
REMARK  213  A    between atoms: _547  and  _548
REMARK  214  A    between atoms: _547  and  _550
REMARK  215  A    between atoms: _550  and  _551
REMARK  216  A    between atoms: _554  and  _556
REMARK  217  A    between atoms: _556  and  _557
REMARK  218  A    between atoms: _556  and  _559
REMARK  219  A    between atoms: _559  and  _560
REMARK  220  A    between atoms: _563  and  _565
REMARK  221  A    between atoms: _565  and  _566
REMARK  222  A    between atoms: _565  and  _568
REMARK  223  A    between atoms: _568  and  _569
REMARK  224  A    between atoms: _569  and  _570
REMARK  225  A    between atoms: _573  and  _575
REMARK  226  A    between atoms: _575  and  _576
REMARK  227  A    between atoms: _575  and  _578
REMARK  228  A    between atoms: _578  and  _579
REMARK  229  A    between atoms: _579  and  _580
REMARK  230  A    between atoms: _580  and  _581
REMARK  231  A    between atoms: _581  and  _582
REMARK  232  A    between atoms: _586  and  _588
REMARK  233  A    between atoms: _588  and  _589
REMARK  234  A    between atoms: _588  and  _591
REMARK  235  A    between atoms: _591  and  _592
REMARK                            x       y       z     vdW  Elec       q    Type
REMARK                         _______ _______ _______ _____ _____    ______ ____
ROOT
ATOM      1  C   PHE A   7       8.197  13.806  39.055  0.00  0.00    +0.244 C 
ATOM      2  N   PRO A   8       8.642  12.670  39.582  0.00  0.00    -0.272 N 
ATOM      3  CD  PRO A   8       9.601  12.659  40.701  0.00  0.00    +0.094 C 
ATOM      4  CG  PRO A   8       9.547  11.239  41.188  0.00  0.00    +0.024 C 
ATOM      5  CB  PRO A   8       8.191  10.740  40.836  0.00  0.00    +0.031 C 
ATOM      6  CA  PRO A   8       7.864  11.430  39.510  0.00  0.00    +0.152 C 
ATOM      7  O   PHE A   7       7.572  13.853  37.995  0.00  0.00    -0.273 OA
ENDROOT
BRANCH   6   8
ATOM      8  C   PRO A   8       6.367  11.706  39.419  0.00  0.00    +0.241 C 
ATOM      9  O   PRO A   8       5.863  12.603  40.094  0.00  0.00    -0.273 OA
ATOM     10  N   ASP A   9       5.668  10.938  38.589  0.00  0.00    -0.297 N 
ATOM     11  H   ASP A   9       6.174  10.312  37.931  0.00  0.00    +0.150 HD
BRANCH  10  12
ATOM     12  CA  ASP A   9       4.210  10.951  38.577  0.00  0.00    +0.160 C 
BRANCH  12  13
ATOM     13  C   ASP A   9       3.648  11.095  39.987  0.00  0.00    +0.241 C 
ATOM     14  O   ASP A   9       3.289  10.107  40.627  0.00  0.00    -0.273 OA
ATOM     15  N   THR A  10       3.576  12.333  40.466  0.00  0.00    -0.295 N 
ATOM     16  H   THR A  10       4.267  13.041  40.146  0.00  0.00    +0.150 HD
BRANCH  15  17
ATOM     17  CA  THR A  10       2.553  12.723  41.428  0.00  0.00    +0.176 C 
BRANCH  17  18
ATOM     18  C   THR A  10       1.185  12.181  41.030  0.00  0.00    +0.243 C 
ATOM     19  O   THR A  10       0.294  12.040  41.868  0.00  0.00    -0.273 OA
ATOM     20  N   ASP A  11       1.025  11.877  39.746  0.00  0.00    -0.296 N 
ATOM     21  H   ASP A  11       1.782  11.366  39.248  0.00  0.00    +0.150 HD
BRANCH  20  22
ATOM     22  CA  ASP A  11      -0.185  12.241  39.017  0.00  0.00    +0.160 C 
BRANCH  22  23
ATOM     23  C   ASP A  11      -1.436  11.841  39.791  0.00  0.00    +0.244 C 
ATOM     24  O   ASP A  11      -1.422  10.880  40.560  0.00  0.00    -0.273 OA
ATOM     25  N   PRO A  12      -2.518  12.585  39.583  0.00  0.00    -0.272 N 
ATOM     26  CA  PRO A  12      -2.441  14.047  39.487  0.00  0.00    +0.152 C 
ATOM     27  CB  PRO A  12      -3.903  14.458  39.306  0.00  0.00    +0.031 C 
ATOM     28  CG  PRO A  12      -4.539  13.284  38.651  0.00  0.00    +0.024 C 
ATOM     29  CD  PRO A  12      -3.850  12.074  39.215  0.00  0.00    +0.094 C 
BRANCH  26  30
ATOM     30  C   PRO A  12      -1.875  14.669  40.759  0.00  0.00    +0.241 C 
ATOM     31  O   PRO A  12      -1.681  13.970  41.753  0.00  0.00    -0.273 OA
ATOM     32  N   ALA A  13      -1.615  15.972  40.721  0.00  0.00    -0.297 N 
ATOM     33  H   ALA A  13      -0.627  16.290  40.660  0.00  0.00    +0.150 HD
BRANCH  32  34
ATOM     34  CA  ALA A  13      -2.679  16.967  40.762  0.00  0.00    +0.149 C 
ATOM     35  CB  ALA A  13      -2.189  18.240  41.433  0.00  0.00    +0.031 C 
BRANCH  34  36
ATOM     36  C   ALA A  13      -3.206  17.270  39.363  0.00  0.00    +0.241 C 
ATOM     37  O   ALA A  13      -3.927  18.246  39.158  0.00  0.00    -0.273 OA
ATOM     38  N   PHE A  14      -2.841  16.426  38.403  0.00  0.00    -0.298 N 
ATOM     39  H   PHE A  14      -3.052  15.413  38.512  0.00  0.00    +0.150 HD
BRANCH  38  40
ATOM     40  CA  PHE A  14      -2.153  16.883  37.202  0.00  0.00    +0.141 C 
BRANCH  40  41
ATOM     41  C   PHE A  14      -2.800  16.312  35.945  0.00  0.00    +0.227 C 
ATOM     42  O   PHE A  14      -2.277  15.380  35.334  0.00  0.00    -0.286 OA
ENDBRANCH  40  41
BRANCH  40  43
ATOM     43  CB  PHE A  14      -0.673  16.498  37.253  0.00  0.00    +0.054 C 
BRANCH  43  44
ATOM     44  CG  PHE A  14       0.056  17.048  38.445  0.00  0.00    -0.020 A 
ATOM     45  CD2 PHE A  14      -0.367  18.218  39.053  0.00  0.00    -0.004 A 
ATOM     46  CE2 PHE A  14       0.302  18.726  40.151  0.00  0.00    -0.000 A 
ATOM     47  CZ  PHE A  14       1.405  18.066  40.652  0.00  0.00    -0.000 A 
ATOM     48  CE1 PHE A  14       1.838  16.899  40.055  0.00  0.00    -0.000 A 
ATOM     49  CD1 PHE A  14       1.165  16.395  38.958  0.00  0.00    -0.004 A 
ENDBRANCH  43  44
ENDBRANCH  40  43
ENDBRANCH  38  40
ENDBRANCH  34  36
ENDBRANCH  32  34
ENDBRANCH  26  30
ENDBRANCH  22  23
BRANCH  22  50
ATOM     50  CB  ASP A  11      -0.192  11.591  37.632  0.00  0.00    +0.143 C 
BRANCH  50  51
ATOM     51  CG  ASP A  11      -1.364  10.649  37.438  0.00  0.00    +0.367 C 
ATOM     52  OD2 ASP A  11      -1.222   9.448  37.751  0.00  0.00    -0.246 OA
ATOM     53  OD1 ASP A  11      -2.427  11.109  36.971  0.00  0.00    -0.246 OA
ENDBRANCH  50  51
ENDBRANCH  22  50
ENDBRANCH  20  22
ENDBRANCH  17  18
BRANCH  17  54
ATOM     54  CB  THR A  10       2.466  14.254  41.570  0.00  0.00    +0.137 C 
ATOM     55  CG2 THR A  10       1.493  14.633  42.676  0.00  0.00    +0.034 C 
BRANCH  54  56
ATOM     56  OG1 THR A  10       3.762  14.783  41.877  0.00  0.00    -0.382 OA
ATOM     57  HG1 THR A  10       3.703  15.767  41.968  0.00  0.00    +0.210 HD
ENDBRANCH  54  56
ENDBRANCH  17  54
ENDBRANCH  15  17
ENDBRANCH  12  13
BRANCH  12  58
ATOM     58  CB  ASP A   9       3.669   9.678  37.923  0.00  0.00    +0.143 C 
BRANCH  58  59
ATOM     59  CG  ASP A   9       3.674   9.753  36.409  0.00  0.00    +0.367 C 
ATOM     60  OD2 ASP A   9       4.062  10.809  35.866  0.00  0.00    -0.246 OA
ATOM     61  OD1 ASP A   9       3.290   8.756  35.761  0.00  0.00    -0.246 OA
ENDBRANCH  58  59
ENDBRANCH  12  58
ENDBRANCH  10  12
ENDBRANCH   6   8
BRANCH   1  62
ATOM     62  CA  PHE A   7       8.502  15.078  39.839  0.00  0.00    +0.153 C 
BRANCH  62  65
ATOM     63  C   LEU A   6      10.549  16.206  40.523  0.00  0.00    +0.241 C 
ATOM     64  O   LEU A   6      10.040  17.084  41.219  0.00  0.00    -0.273 OA
ATOM     65  N   PHE A   7       9.870  15.526  39.605  0.00  0.00    -0.297 N 
ATOM     66  H   PHE A   7      10.326  15.308  38.696  0.00  0.00    +0.150 HD
BRANCH  63  67
ATOM     67  CA  LEU A   6      12.021  15.841  40.678  0.00  0.00    +0.149 C 
BRANCH  67  70
ATOM     68  C   LYS A   5      13.003  13.816  39.750  0.00  0.00    +0.241 C 
ATOM     69  O   LYS A   5      13.216  13.344  40.858  0.00  0.00    -0.273 OA
ATOM     70  N   LEU A   6      12.483  15.025  39.563  0.00  0.00    -0.297 N 
ATOM     71  H   LEU A   6      12.404  15.398  38.595  0.00  0.00    +0.150 HD
BRANCH  68  72
ATOM     72  CA  LYS A   5      13.331  13.023  38.504  0.00  0.00    +0.149 C 
BRANCH  72  75
ATOM     73  C   GLY A   4      11.320  12.850  37.144  0.00  0.00    +0.243 C 
ATOM     74  O   GLY A   4      10.752  12.135  37.969  0.00  0.00    -0.273 OA
ATOM     75  N   LYS A   5      12.512  13.397  37.358  0.00  0.00    -0.297 N 
ATOM     76  H   LYS A   5      12.870  14.110  36.691  0.00  0.00    +0.150 HD
BRANCH  73  77
ATOM     77  CA  GLY A   4      10.675  13.154  35.806  0.00  0.00    +0.176 C 
BRANCH  77  80
ATOM     78  C   ILE A   3      10.716  15.577  35.970  0.00  0.00    +0.241 C 
ATOM     79  O   ILE A   3       9.889  15.601  36.881  0.00  0.00    -0.273 OA
ATOM     80  N   GLY A   4      11.028  14.469  35.305  0.00  0.00    -0.295 N 
ATOM     81  H   GLY A   4      11.538  14.547  34.402  0.00  0.00    +0.150 HD
BRANCH  78  82
ATOM     82  CA  ILE A   3      11.447  16.846  35.544  0.00  0.00    +0.149 C 
BRANCH  82  85
ATOM     83  C   ASP A   2      13.824  16.385  35.803  0.00  0.00    +0.241 C 
ATOM     84  O   ASP A   2      13.846  16.769  36.972  0.00  0.00    -0.273 OA
ATOM     85  N   ILE A   3      12.768  16.539  35.010  0.00  0.00    -0.297 N 
ATOM     86  H   ILE A   3      12.888  16.438  33.982  0.00  0.00    +0.150 HD
BRANCH  83  87
ATOM     87  CA  ASP A   2      15.035  15.695  35.185  0.00  0.00    +0.160 C 
BRANCH  87  89
ATOM     88  C   GLY A   1      17.356  16.408  35.367  0.00  0.00    +0.240 C 
ATOM     89  N   ASP A   2      16.245  15.969  35.950  0.00  0.00    -0.297 N 
ATOM     90  H   ASP A   2      16.239  15.817  36.979  0.00  0.00    +0.150 HD
ATOM     91  O   GLY A   1      17.530  16.379  34.149  0.00  0.00    -0.274 OA
BRANCH  88  92
ATOM     92  CA  GLY A   1      18.424  16.959  36.291  0.00  0.00    +0.169 C 
BRANCH  92  93
ATOM     93  N   GLY A   1      18.425  16.309  37.588  0.00  0.00    -0.236 NA
ATOM     94  H   GLY A   1      18.715  15.313  37.655  0.00  0.00    +0.142 HD
ENDBRANCH  92  93
ENDBRANCH  88  92
ENDBRANCH  87  89
BRANCH  87  95
ATOM     95  CB  ASP A   2      14.790  14.188  35.090  0.00  0.00    +0.143 C 
BRANCH  95  96
ATOM     96  CG  ASP A   2      14.656  13.707  33.659  0.00  0.00    +0.367 C 
ATOM     97  OD2 ASP A   2      15.421  12.805  33.259  0.00  0.00    -0.246 OA
ATOM     98  OD1 ASP A   2      13.785  14.232  32.934  0.00  0.00    -0.246 OA
ENDBRANCH  95  96
ENDBRANCH  87  95
ENDBRANCH  83  87
ENDBRANCH  82  85
BRANCH  82  99
ATOM     99  CB  ILE A   3      10.585  17.604  34.517  0.00  0.00    +0.027 C 
ATOM    100  CG2 ILE A   3      10.722  19.106  34.712  0.00  0.00    +0.002 C 
BRANCH  99 101
ATOM    101  CG1 ILE A   3      10.977  17.204  33.093  0.00  0.00    +0.002 C 
ATOM    102  CD1 ILE A   3      10.215  17.949  32.019  0.00  0.00    +0.000 C 
ENDBRANCH  99 101
ENDBRANCH  82  99
ENDBRANCH  78  82
ENDBRANCH  77  80
ENDBRANCH  73  77
ENDBRANCH  72  75
BRANCH  72 103
ATOM    103  CB  LYS A   5      14.807  13.190  38.174  0.00  0.00    +0.029 C 
BRANCH 103 104
ATOM    104  CG  LYS A   5      15.713  13.319  39.374  0.00  0.00    +0.000 C 
BRANCH 104 105
ATOM    105  CD  LYS A   5      16.362  12.005  39.687  0.00  0.00    -0.024 C 
BRANCH 105 106
ATOM    106  CE  LYS A   5      17.287  12.121  40.878  0.00  0.00    -0.086 C 
BRANCH 106 107
ATOM    107  NZ  LYS A   5      17.943  10.808  41.160  0.00  0.00    +0.380 N 
ATOM    108  HZ1 LYS A   5      18.574  10.906  41.981  0.00  0.00    -0.089 HD
ATOM    109  HZ2 LYS A   5      17.214  10.095  41.365  0.00  0.00    -0.089 HD
ATOM    110  HZ3 LYS A   5      18.495  10.512  40.330  0.00  0.00    -0.089 HD
ENDBRANCH 106 107
ENDBRANCH 105 106
ENDBRANCH 104 105
ENDBRANCH 103 104
ENDBRANCH  72 103
ENDBRANCH  68  72
ENDBRANCH  67  70
BRANCH  67 111
ATOM    111  CB  LEU A   6      12.867  17.110  40.800  0.00  0.00    +0.029 C 
BRANCH 111 112
ATOM    112  CG  LEU A   6      13.002  17.959  39.533  0.00  0.00    +0.002 C 
ATOM    113  CD2 LEU A   6      12.578  19.395  39.801  0.00  0.00    +0.000 C 
ATOM    114  CD1 LEU A   6      14.425  17.906  38.999  0.00  0.00    +0.000 C 
ENDBRANCH 111 112
ENDBRANCH  67 111
ENDBRANCH  63  67
ENDBRANCH  62  65
BRANCH  62 115
ATOM    115  CB  PHE A   7       7.506  16.177  39.466  0.00  0.00    +0.055 C 
BRANCH 115 116
ATOM    116  CG  PHE A   7       7.720  17.466  40.207  0.00  0.00    -0.020 A 
ATOM    117  CD2 PHE A   7       7.024  17.732  41.375  0.00  0.00    -0.004 A 
ATOM    118  CE2 PHE A   7       7.219  18.917  42.059  0.00  0.00    -0.000 A 
ATOM    119  CZ  PHE A   7       8.115  19.851  41.579  0.00  0.00    -0.000 A 
ATOM    120  CE1 PHE A   7       8.814  19.598  40.416  0.00  0.00    -0.000 A 
ATOM    121  CD1 PHE A   7       8.615  18.411  39.736  0.00  0.00    -0.004 A 
ENDBRANCH 115 116
ENDBRANCH  62 115
ENDBRANCH   1  62
TORSDOF 47
REMARK  Name = ../refined-set-2016/2gzl/2gzl_pocket.pdb
REMARK  235 active torsions:
REMARK  status: ('A' for Active; 'I' for Inactive)
REMARK    1  A    between atoms: _1  and  _3
REMARK    2  A    between atoms: _3  and  _4
REMARK    3  A    between atoms: _3  and  _6
REMARK    4  A    between atoms: _6  and  _7
REMARK    5  A    between atoms: _13  and  _15
REMARK    6  A    between atoms: _24  and  _27
REMARK    7  A    between atoms: _32  and  _33
REMARK    8  A    between atoms: _41  and  _43
REMARK    9  A    between atoms: _43  and  _44
REMARK   10  A    between atoms: _43  and  _46
REMARK   11  A    between atoms: _46  and  _47
REMARK   12  A    between atoms: _50  and  _52
REMARK   13  A    between atoms: _52  and  _53
REMARK   14  A    between atoms: _56  and  _58
REMARK   15  A    between atoms: _58  and  _59
REMARK   16  A    between atoms: _58  and  _61
REMARK   17  A    between atoms: _61  and  _62
REMARK   18  A    between atoms: _67  and  _69
REMARK   19  A    between atoms: _69  and  _70
REMARK   20  A    between atoms: _69  and  _72
REMARK   21  A    between atoms: _72  and  _73
REMARK   22  A    between atoms: _75  and  _77
REMARK   23  A    between atoms: _77  and  _78
REMARK   24  A    between atoms: _77  and  _80
REMARK   25  A    between atoms: _80  and  _81
REMARK   26  A    between atoms: _84  and  _86
REMARK   27  A    between atoms: _86  and  _87
REMARK   28  A    between atoms: _89  and  _91
REMARK   29  A    between atoms: _91  and  _92
REMARK   30  A    between atoms: _91  and  _94
REMARK   31  A    between atoms: _94  and  _95
REMARK   32  A    between atoms: _98  and  _100
REMARK   33  A    between atoms: _100  and  _101
REMARK   34  A    between atoms: _100  and  _103
REMARK   35  A    between atoms: _106  and  _108
REMARK   36  A    between atoms: _108  and  _109
REMARK   37  A    between atoms: _108  and  _111
REMARK   38  A    between atoms: _111  and  _112
REMARK   39  A    between atoms: _113  and  ZN_595
REMARK   40  A    between atoms: _117  and  _119
REMARK   41  A    between atoms: _119  and  _120
REMARK   42  A    between atoms: _123  and  _125
REMARK   43  A    between atoms: _125  and  _126
REMARK   44  A    between atoms: _125  and  _128
REMARK   45  A    between atoms: _128  and  _129
REMARK   46  A    between atoms: _132  and  _134
REMARK   47  A    between atoms: _134  and  _135
REMARK   48  A    between atoms: _134  and  _137
REMARK   49  A    between atoms: _137  and  _138
REMARK   50  A    between atoms: _141  and  _143
REMARK   51  A    between atoms: _143  and  _144
REMARK   52  A    between atoms: _146  and  _148
REMARK   53  A    between atoms: _148  and  _149
REMARK   54  A    between atoms: _148  and  _151
REMARK   55  A    between atoms: _151  and  _152
REMARK   56  A    between atoms: _155  and  _157
REMARK   57  A    between atoms: _157  and  _158
REMARK   58  A    between atoms: _157  and  _160
REMARK   59  A    between atoms: _160  and  _161
REMARK   60  A    between atoms: _164  and  _166
REMARK   61  A    between atoms: _166  and  _167
REMARK   62  A    between atoms: _169  and  _171
REMARK   63  A    between atoms: _171  and  _172
REMARK   64  A    between atoms: _171  and  _174
REMARK   65  A    between atoms: _174  and  _175
REMARK   66  A    between atoms: _175  and  _176
REMARK   67  A    between atoms: _176  and  _177
REMARK   68  A    between atoms: _177  and  _178
REMARK   69  A    between atoms: _182  and  _184
REMARK   70  A    between atoms: _184  and  _185
REMARK   71  A    between atoms: _184  and  _187
REMARK   72  A    between atoms: _187  and  _188
REMARK   73  A    between atoms: _191  and  _193
REMARK   74  A    between atoms: _193  and  _194
REMARK   75  A    between atoms: _193  and  _196
REMARK   76  A    between atoms: _196  and  _197
REMARK   77  A    between atoms: _204  and  _205
REMARK   78  A    between atoms: _210  and  _212
REMARK   79  A    between atoms: _212  and  _213
REMARK   80  A    between atoms: _212  and  _215
REMARK   81  A    between atoms: _215  and  _216
REMARK   82  A    between atoms: _219  and  _221
REMARK   83  A    between atoms: _221  and  _222
REMARK   84  A    between atoms: _221  and  _224
REMARK   85  A    between atoms: _224  and  _225
REMARK   86  A    between atoms: _228  and  _230
REMARK   87  A    between atoms: _230  and  _231
REMARK   88  A    between atoms: _230  and  _233
REMARK   89  A    between atoms: _233  and  _234
REMARK   90  A    between atoms: _238  and  _239
REMARK   91  A    between atoms: _244  and  _246
REMARK   92  A    between atoms: _246  and  _247
REMARK   93  A    between atoms: _250  and  _252
REMARK   94  A    between atoms: _252  and  _253
REMARK   95  A    between atoms: _252  and  _255
REMARK   96  A    between atoms: _255  and  _256
REMARK   97  A    between atoms: _262  and  _264
REMARK   98  A    between atoms: _264  and  _265
REMARK   99  A    between atoms: _267  and  _269
REMARK  100  A    between atoms: _269  and  _270
REMARK  101  A    between atoms: _273  and  _275
REMARK  102  A    between atoms: _275  and  _276
REMARK  103  A    between atoms: _275  and  _278
REMARK  104  A    between atoms: _278  and  _279
REMARK  105  A    between atoms: _282  and  _284
REMARK  106  A    between atoms: _284  and  _285
REMARK  107  A    between atoms: _284  and  _287
REMARK  108  A    between atoms: _287  and  _288
REMARK  109  A    between atoms: _290  and  _292
REMARK  110  A    between atoms: _292  and  _293
REMARK  111  A    between atoms: _292  and  _295
REMARK  112  A    between atoms: _295  and  _296
REMARK  113  A    between atoms: _296  and  _297
REMARK  114  A    between atoms: _297  and  _298
REMARK  115  A    between atoms: _307  and  _309
REMARK  116  A    between atoms: _309  and  _310
REMARK  117  A    between atoms: _309  and  _312
REMARK  118  A    between atoms: _312  and  _313
REMARK  119  A    between atoms: _313  and  _314
REMARK  120  A    between atoms: _317  and  _319
REMARK  121  A    between atoms: _319  and  _320
REMARK  122  A    between atoms: _319  and  _322
REMARK  123  A    between atoms: _322  and  _323
REMARK  124  A    between atoms: _326  and  _328
REMARK  125  A    between atoms: _328  and  _329
REMARK  126  A    between atoms: _328  and  _331
REMARK  127  A    between atoms: _331  and  _332
REMARK  128  A    between atoms: _335  and  _337
REMARK  129  A    between atoms: _337  and  _338
REMARK  130  A    between atoms: _337  and  _340
REMARK  131  A    between atoms: _340  and  _341
REMARK  132  A    between atoms: _341  and  _342
REMARK  133  A    between atoms: _342  and  _343
REMARK  134  A    between atoms: _352  and  _354
REMARK  135  A    between atoms: _354  and  _355
REMARK  136  A    between atoms: _354  and  _357
REMARK  137  A    between atoms: _357  and  _358
REMARK  138  A    between atoms: _358  and  _359
REMARK  139  A    between atoms: _362  and  _364
REMARK  140  A    between atoms: _364  and  _365
REMARK  141  A    between atoms: _368  and  _370
REMARK  142  A    between atoms: _370  and  _371
REMARK  143  A    between atoms: _370  and  _373
REMARK  144  A    between atoms: _373  and  _374
REMARK  145  A    between atoms: _374  and  _375
REMARK  146  A    between atoms: _375  and  _376
REMARK  147  A    between atoms: _385  and  _387
REMARK  148  A    between atoms: _387  and  _388
REMARK  149  A    between atoms: _387  and  _390
REMARK  150  A    between atoms: _390  and  _391
REMARK  151  A    between atoms: _391  and  _392
REMARK  152  A    between atoms: _392  and  _393
REMARK  153  A    between atoms: _402  and  _404
REMARK  154  A    between atoms: _404  and  _405
REMARK  155  A    between atoms: _404  and  _407
REMARK  156  A    between atoms: _407  and  _408
REMARK  157  A    between atoms: _411  and  _413
REMARK  158  A    between atoms: _413  and  _414
REMARK  159  A    between atoms: _413  and  _416
REMARK  160  A    between atoms: _416  and  _417
REMARK  161  A    between atoms: _420  and  _422
REMARK  162  A    between atoms: _422  and  _423
REMARK  163  A    between atoms: _426  and  _428
REMARK  164  A    between atoms: _428  and  _429
REMARK  165  A    between atoms: _428  and  _431
REMARK  166  A    between atoms: _431  and  _432
REMARK  167  A    between atoms: _432  and  _433
REMARK  168  A    between atoms: _438  and  _440
REMARK  169  A    between atoms: _440  and  _441
REMARK  170  A    between atoms: _445  and  _446
REMARK  171  A    between atoms: _451  and  _453
REMARK  172  A    between atoms: _453  and  _454
REMARK  173  A    between atoms: _453  and  _456
REMARK  174  A    between atoms: _456  and  _457
REMARK  175  A    between atoms: _457  and  _458
REMARK  176  A    between atoms: _458  and  _459
REMARK  177  A    between atoms: _459  and  _460
REMARK  178  A    between atoms: _464  and  _466
REMARK  179  A    between atoms: _466  and  _467
REMARK  180  A    between atoms: _466  and  _469
REMARK  181  A    between atoms: _469  and  _470
REMARK  182  A    between atoms: _470  and  _471
REMARK  183  A    between atoms: _473  and  _475
REMARK  184  A    between atoms: _475  and  _476
REMARK  185  A    between atoms: _475  and  _478
REMARK  186  A    between atoms: _478  and  _479
REMARK  187  A    between atoms: _483  and  _484
REMARK  188  A    between atoms: _489  and  _491
REMARK  189  A    between atoms: _491  and  _492
REMARK  190  A    between atoms: _491  and  _494
REMARK  191  A    between atoms: _494  and  _495
REMARK  192  A    between atoms: _500  and  _502
REMARK  193  A    between atoms: _502  and  _503
REMARK  194  A    between atoms: _502  and  _505
REMARK  195  A    between atoms: _505  and  _506
REMARK  196  A    between atoms: _509  and  _511
REMARK  197  A    between atoms: _511  and  _512
REMARK  198  A    between atoms: _511  and  _514
REMARK  199  A    between atoms: _517  and  _519
REMARK  200  A    between atoms: _519  and  _520
REMARK  201  A    between atoms: _519  and  _522
REMARK  202  A    between atoms: _522  and  _523
REMARK  203  A    between atoms: _523  and  _524
REMARK  204  A    between atoms: _524  and  _525
REMARK  205  A    between atoms: _525  and  _526
REMARK  206  A    between atoms: _530  and  _532
REMARK  207  A    between atoms: _532  and  _533
REMARK  208  A    between atoms: _536  and  _538
REMARK  209  A    between atoms: _538  and  _539
REMARK  210  A    between atoms: _538  and  _541
REMARK  211  A    between atoms: _541  and  _542
REMARK  212  A    between atoms: _545  and  _547
REMARK  213  A    between atoms: _547  and  _548
REMARK  214  A    between atoms: _547  and  _550
REMARK  215  A    between atoms: _550  and  _551
REMARK  216  A    between atoms: _554  and  _556
REMARK  217  A    between atoms: _556  and  _557
REMARK  218  A    between atoms: _556  and  _559
REMARK  219  A    between atoms: _559  and  _560
REMARK  220  A    between atoms: _563  and  _565
REMARK  221  A    between atoms: _565  and  _566
REMARK  222  A    between atoms: _565  and  _568
REMARK  223  A    between atoms: _568  and  _569
REMARK  224  A    between atoms: _569  and  _570
REMARK  225  A    between atoms: _573  and  _575
REMARK  226  A    between atoms: _575  and  _576
REMARK  227  A    between atoms: _575  and  _578
REMARK  228  A    between atoms: _578  and  _579
REMARK  229  A    between atoms: _579  and  _580
REMARK  230  A    between atoms: _580  and  _581
REMARK  231  A    between atoms: _581  and  _582
REMARK  232  A    between atoms: _586  and  _588
REMARK  233  A    between atoms: _588  and  _589
REMARK  234  A    between atoms: _588  and  _591
REMARK  235  A    between atoms: _591  and  _592
REMARK                            x       y       z     vdW  Elec       q    Type
REMARK                         _______ _______ _______ _____ _____    ______ ____
ROOT
ATOM      1  CA  GLU A   6       4.057  26.101  37.903  0.00  0.00    +0.149 C 
ENDROOT
BRANCH   1   2
ATOM      2  C   GLU A   6       5.268  25.192  38.035  0.00  0.00    +0.241 C 
ATOM      3  O   GLU A   6       6.081  25.362  38.938  0.00  0.00    -0.273 OA
ATOM      4  N   LEU A   7       5.374  24.231  37.122  0.00  0.00    -0.297 N 
ATOM      5  H   LEU A   7       4.605  24.108  36.433  0.00  0.00    +0.150 HD
BRANCH   4   6
ATOM      6  CA  LEU A   7       6.527  23.346  37.053  0.00  0.00    +0.149 C 
BRANCH   6   7
ATOM      7  C   LEU A   7       7.810  24.144  36.900  0.00  0.00    +0.241 C 
ATOM      8  O   LEU A   7       8.784  23.894  37.609  0.00  0.00    -0.273 OA
ATOM      9  N   LEU A   8       7.797  25.117  35.992  0.00  0.00    -0.297 N 
ATOM     10  H   LEU A   8       6.939  25.267  35.423  0.00  0.00    +0.150 HD
BRANCH   9  11
ATOM     11  CA  LEU A   8       8.952  25.977  35.774  0.00  0.00    +0.149 C 
BRANCH  11  12
ATOM     12  C   LEU A   8       9.367  26.741  37.038  0.00  0.00    +0.241 C 
ATOM     13  N   ARG A   9       8.410  27.390  37.702  0.00  0.00    -0.297 N 
ATOM     14  H   ARG A   9       7.430  27.329  37.358  0.00  0.00    +0.150 HD
ATOM     15  O   LEU A   8      10.544  26.732  37.396  0.00  0.00    -0.273 OA
BRANCH  13  16
ATOM     16  CA  ARG A   9       8.693  28.191  38.906  0.00  0.00    +0.149 C 
BRANCH  16  17
ATOM     17  C   ARG A   9       9.197  27.347  40.089  0.00  0.00    +0.241 C 
ATOM     18  O   ARG A   9      10.102  27.765  40.815  0.00  0.00    -0.273 OA
ATOM     19  N   GLU A  10       8.610  26.166  40.271  0.00  0.00    -0.297 N 
ATOM     20  H   GLU A  10       7.820  25.895  39.651  0.00  0.00    +0.150 HD
BRANCH  19  21
ATOM     21  CA  GLU A  10       9.040  25.240  41.313  0.00  0.00    +0.149 C 
BRANCH  21  22
ATOM     22  C   GLU A  10      10.448  24.707  41.044  0.00  0.00    +0.241 C 
ATOM     23  O   GLU A  10      11.292  24.708  41.940  0.00  0.00    -0.273 OA
ATOM     24  N   ALA A  11      10.700  24.265  39.812  0.00  0.00    -0.298 N 
ATOM     25  H   ALA A  11       9.922  24.202  39.125  0.00  0.00    +0.150 HD
BRANCH  24  26
ATOM     26  CA  ALA A  11      12.043  23.868  39.407  0.00  0.00    +0.137 C 
ATOM     27  CB  ALA A  11      12.066  23.493  37.943  0.00  0.00    +0.030 C 
BRANCH  26  28
ATOM     28  C   ALA A  11      13.022  25.002  39.678  0.00  0.00    +0.227 C 
ATOM     29  O   ALA A  11      14.155  24.764  40.095  0.00  0.00    -0.286 OA
ENDBRANCH  26  28
ENDBRANCH  24  26
ENDBRANCH  21  22
BRANCH  21  30
ATOM     30  CB  GLU A  10       8.030  24.092  41.493  0.00  0.00    +0.041 C 
BRANCH  30  31
ATOM     31  CG  GLU A  10       8.384  23.057  42.597  0.00  0.00    +0.116 C 
BRANCH  31  32
ATOM     32  CD  GLU A  10       8.750  23.666  43.964  0.00  0.00    +0.365 C 
ATOM     33  OE2 GLU A  10       9.538  23.025  44.701  0.00  0.00    -0.246 OA
ATOM     34  OE1 GLU A  10       8.254  24.767  44.311  0.00  0.00    -0.246 OA
ENDBRANCH  31  32
ENDBRANCH  30  31
ENDBRANCH  21  30
ENDBRANCH  19  21
ENDBRANCH  16  17
BRANCH  16  35
ATOM     35  CB  ARG A   9       7.473  29.029  39.324  0.00  0.00    +0.033 C 
BRANCH  35  36
ATOM     36  CG  ARG A   9       7.176  30.225  38.407  0.00  0.00    +0.045 C 
BRANCH  36  37
ATOM     37  CD  ARG A   9       6.073  31.140  38.946  0.00  0.00    +0.174 C 
BRANCH  37  38
ATOM     38  NE  ARG A   9       4.800  30.437  39.093  0.00  0.00    -0.265 N 
ATOM     39  HE  ARG A   9       4.658  29.885  39.963  0.00  0.00    +0.259 HD
ATOM     40  CZ  ARG A   9       3.805  30.445  38.203  0.00  0.00    +0.342 C 
ATOM     41  NH2 ARG A   9       2.707  29.755  38.454  0.00  0.00    -0.292 N 
ATOM     42 HH21 ARG A   9       2.624  29.213  39.338  0.00  0.00    +0.255 HD
ATOM     43 HH22 ARG A   9       1.925  29.754  37.768  0.00  0.00    +0.255 HD
ATOM     44  NH1 ARG A   9       3.891  31.130  37.066  0.00  0.00    -0.292 N 
ATOM     45 HH11 ARG A   9       4.749  31.677  36.852  0.00  0.00    +0.255 HD
ATOM     46 HH12 ARG A   9       3.100  31.118  36.391  0.00  0.00    +0.255 HD
ENDBRANCH  37  38
ENDBRANCH  36  37
ENDBRANCH  35  36
ENDBRANCH  16  35
ENDBRANCH  13  16
ENDBRANCH  11  12
BRANCH  11  47
ATOM     47  CB  LEU A   8       8.720  26.929  34.591  0.00  0.00    +0.029 C 
BRANCH  47  48
ATOM     48  CG  LEU A   8       9.801  27.967  34.257  0.00  0.00    +0.002 C 
ATOM     49  CD2 LEU A   8      11.111  27.318  33.860  0.00  0.00    +0.000 C 
ATOM     50  CD1 LEU A   8       9.327  28.920  33.162  0.00  0.00    +0.000 C 
ENDBRANCH  47  48
ENDBRANCH  11  47
ENDBRANCH   9  11
ENDBRANCH   6   7
BRANCH   6  51
ATOM     51  CB  LEU A   7       6.375  22.349  35.904  0.00  0.00    +0.029 C 
BRANCH  51  52
ATOM     52  CG  LEU A   7       7.553  21.427  35.557  0.00  0.00    +0.002 C 
ATOM     53  CD2 LEU A   7       7.985  20.559  36.745  0.00  0.00    +0.000 C 
ATOM     54  CD1 LEU A   7       7.220  20.544  34.351  0.00  0.00    +0.000 C 
ENDBRANCH  51  52
ENDBRANCH   6  51
ENDBRANCH   4   6
ENDBRANCH   1   2
BRANCH   1  56
ATOM     55  C   ARG A   5       4.788  27.290  35.882  0.00  0.00    +0.241 C 
ATOM     56  N   GLU A   6       3.889  26.525  36.507  0.00  0.00    -0.297 N 
ATOM     57  H   GLU A   6       3.041  26.219  35.988  0.00  0.00    +0.150 HD
ATOM     58  O   ARG A   5       5.763  27.781  36.451  0.00  0.00    -0.273 OA
BRANCH  55  59
ATOM     59  CA  ARG A   5       4.562  27.552  34.385  0.00  0.00    +0.149 C 
BRANCH  59  62
ATOM     60  C   SER A   4       4.582  25.241  33.591  0.00  0.00    +0.243 C 
ATOM     61  O   SER A   4       5.757  25.085  33.904  0.00  0.00    -0.273 OA
ATOM     62  N   ARG A   5       3.951  26.406  33.707  0.00  0.00    -0.297 N 
ATOM     63  H   ARG A   5       2.997  26.506  33.305  0.00  0.00    +0.150 HD
BRANCH  60  64
ATOM     64  CA  SER A   4       3.778  24.068  33.034  0.00  0.00    +0.178 C 
BRANCH  64  67
ATOM     65  C   ASP A   3       1.728  24.332  34.382  0.00  0.00    +0.241 C 
ATOM     66  O   ASP A   3       2.348  24.414  35.446  0.00  0.00    -0.273 OA
ATOM     67  N   SER A   4       2.323  24.181  33.196  0.00  0.00    -0.295 N 
ATOM     68  H   SER A   4       1.726  24.141  32.345  0.00  0.00    +0.150 HD
BRANCH  65  69
ATOM     69  CA  ASP A   3       0.196  24.425  34.356  0.00  0.00    +0.160 C 
BRANCH  69  71
ATOM     70  C   ALA A   2      -0.508  22.100  34.134  0.00  0.00    +0.241 C 
ATOM     71  N   ASP A   3      -0.416  23.208  34.867  0.00  0.00    -0.297 N 
ATOM     72  H   ASP A   3      -0.794  23.203  35.836  0.00  0.00    +0.150 HD
ATOM     73  O   ALA A   2      -0.026  21.994  32.999  0.00  0.00    -0.273 OA
BRANCH  70  74
ATOM     74  CA  ALA A   2      -1.256  20.928  34.780  0.00  0.00    +0.149 C 
ATOM     75  CB  ALA A   2      -0.272  19.925  35.378  0.00  0.00    +0.031 C 
BRANCH  74  77
ATOM     76  C   GLY A   1      -3.118  20.928  33.200  0.00  0.00    +0.240 C 
ATOM     77  N   ALA A   2      -2.159  20.263  33.836  0.00  0.00    -0.297 N 
ATOM     78  H   ALA A   2      -2.046  19.244  33.659  0.00  0.00    +0.150 HD
ATOM     79  O   GLY A   1      -3.347  22.122  33.394  0.00  0.00    -0.274 OA
BRANCH  76  80
ATOM     80  CA  GLY A   1      -3.936  20.133  32.202  0.00  0.00    +0.169 C 
BRANCH  80  81
ATOM     81  N   GLY A   1      -4.056  18.735  32.571  0.00  0.00    -0.236 NA
ATOM     82  H   GLY A   1      -3.697  18.007  31.921  0.00  0.00    +0.142 HD
ENDBRANCH  80  81
ENDBRANCH  76  80
ENDBRANCH  74  77
ENDBRANCH  70  74
ENDBRANCH  69  71
BRANCH  69  83
ATOM     83  CB  ASP A   3      -0.307  25.637  35.150  0.00  0.00    +0.143 C 
BRANCH  83  84
ATOM     84  CG  ASP A   3       0.116  26.965  34.545  0.00  0.00    +0.367 C 
ATOM     85  OD2 ASP A   3      -0.509  27.989  34.881  0.00  0.00    -0.246 OA
ATOM     86  OD1 ASP A   3       1.075  27.008  33.744  0.00  0.00    -0.246 OA
ENDBRANCH  83  84
ENDBRANCH  69  83
ENDBRANCH  65  69
ENDBRANCH  64  67
BRANCH  64  87
ATOM     87  CB  SER A   4       4.149  23.839  31.572  0.00  0.00    +0.166 C 
BRANCH  87  88
ATOM     88  OG  SER A   4       3.686  22.579  31.135  0.00  0.00    -0.380 OA
ATOM     89  H   SER A   4       4.098  21.868  31.687  0.00  0.00    +0.211 HD
ENDBRANCH  87  88
ENDBRANCH  64  87
ENDBRANCH  60  64
ENDBRANCH  59  62
BRANCH  59  90
ATOM     90  CB  ARG A   5       3.736  28.825  34.176  0.00  0.00    +0.033 C 
BRANCH  90  91
ATOM     91  CG  ARG A   5       3.861  29.421  32.777  0.00  0.00    +0.045 C 
BRANCH  91  92
ATOM     92  CD  ARG A   5       3.095  30.721  32.615  0.00  0.00    +0.174 C 
BRANCH  92  93
ATOM     93  NE  ARG A   5       3.708  31.823  33.350  0.00  0.00    -0.265 N 
ATOM     94  HE  ARG A   5       4.684  31.699  33.687  0.00  0.00    +0.259 HD
ATOM     95  CZ  ARG A   5       3.100  32.976  33.617  0.00  0.00    +0.342 C 
ATOM     96  NH2 ARG A   5       3.734  33.922  34.292  0.00  0.00    -0.292 N 
ATOM     97 HH21 ARG A   5       4.710  33.765  34.615  0.00  0.00    +0.255 HD
ATOM     98 HH22 ARG A   5       3.256  34.822  34.499  0.00  0.00    +0.255 HD
ATOM     99  NH1 ARG A   5       1.858  33.186  33.207  0.00  0.00    -0.292 N 
ATOM    100 HH11 ARG A   5       1.386  34.089  33.418  0.00  0.00    +0.255 HD
ATOM    101 HH12 ARG A   5       1.354  32.448  32.674  0.00  0.00    +0.255 HD
ENDBRANCH  92  93
ENDBRANCH  91  92
ENDBRANCH  90  91
ENDBRANCH  59  90
ENDBRANCH  55  59
ENDBRANCH   1  56
BRANCH   1 102
ATOM    102  CB  GLU A   6       2.812  25.372  38.423  0.00  0.00    +0.041 C 
BRANCH 102 103
ATOM    103  CG  GLU A   6       1.750  26.281  39.021  0.00  0.00    +0.116 C 
BRANCH 103 104
ATOM    104  CD  GLU A   6       0.394  25.591  39.219  0.00  0.00    +0.365 C 
ATOM    105  OE2 GLU A   6      -0.594  26.319  39.470  0.00  0.00    -0.246 OA
ATOM    106  OE1 GLU A   6       0.307  24.341  39.122  0.00  0.00    -0.246 OA
ENDBRANCH 103 104
ENDBRANCH 102 103
ENDBRANCH   1 102
TORSDOF 44
REMARK  Name = ../refined-set-2016/2gzl/2gzl_pocket.pdb
REMARK  235 active torsions:
REMARK  status: ('A' for Active; 'I' for Inactive)
REMARK    1  A    between atoms: _1  and  _3
REMARK    2  A    between atoms: _3  and  _4
REMARK    3  A    between atoms: _3  and  _6
REMARK    4  A    between atoms: _6  and  _7
REMARK    5  A    between atoms: _13  and  _15
REMARK    6  A    between atoms: _24  and  _27
REMARK    7  A    between atoms: _32  and  _33
REMARK    8  A    between atoms: _41  and  _43
REMARK    9  A    between atoms: _43  and  _44
REMARK   10  A    between atoms: _43  and  _46
REMARK   11  A    between atoms: _46  and  _47
REMARK   12  A    between atoms: _50  and  _52
REMARK   13  A    between atoms: _52  and  _53
REMARK   14  A    between atoms: _56  and  _58
REMARK   15  A    between atoms: _58  and  _59
REMARK   16  A    between atoms: _58  and  _61
REMARK   17  A    between atoms: _61  and  _62
REMARK   18  A    between atoms: _67  and  _69
REMARK   19  A    between atoms: _69  and  _70
REMARK   20  A    between atoms: _69  and  _72
REMARK   21  A    between atoms: _72  and  _73
REMARK   22  A    between atoms: _75  and  _77
REMARK   23  A    between atoms: _77  and  _78
REMARK   24  A    between atoms: _77  and  _80
REMARK   25  A    between atoms: _80  and  _81
REMARK   26  A    between atoms: _84  and  _86
REMARK   27  A    between atoms: _86  and  _87
REMARK   28  A    between atoms: _89  and  _91
REMARK   29  A    between atoms: _91  and  _92
REMARK   30  A    between atoms: _91  and  _94
REMARK   31  A    between atoms: _94  and  _95
REMARK   32  A    between atoms: _98  and  _100
REMARK   33  A    between atoms: _100  and  _101
REMARK   34  A    between atoms: _100  and  _103
REMARK   35  A    between atoms: _106  and  _108
REMARK   36  A    between atoms: _108  and  _109
REMARK   37  A    between atoms: _108  and  _111
REMARK   38  A    between atoms: _111  and  _112
REMARK   39  A    between atoms: _113  and  ZN_595
REMARK   40  A    between atoms: _117  and  _119
REMARK   41  A    between atoms: _119  and  _120
REMARK   42  A    between atoms: _123  and  _125
REMARK   43  A    between atoms: _125  and  _126
REMARK   44  A    between atoms: _125  and  _128
REMARK   45  A    between atoms: _128  and  _129
REMARK   46  A    between atoms: _132  and  _134
REMARK   47  A    between atoms: _134  and  _135
REMARK   48  A    between atoms: _134  and  _137
REMARK   49  A    between atoms: _137  and  _138
REMARK   50  A    between atoms: _141  and  _143
REMARK   51  A    between atoms: _143  and  _144
REMARK   52  A    between atoms: _146  and  _148
REMARK   53  A    between atoms: _148  and  _149
REMARK   54  A    between atoms: _148  and  _151
REMARK   55  A    between atoms: _151  and  _152
REMARK   56  A    between atoms: _155  and  _157
REMARK   57  A    between atoms: _157  and  _158
REMARK   58  A    between atoms: _157  and  _160
REMARK   59  A    between atoms: _160  and  _161
REMARK   60  A    between atoms: _164  and  _166
REMARK   61  A    between atoms: _166  and  _167
REMARK   62  A    between atoms: _169  and  _171
REMARK   63  A    between atoms: _171  and  _172
REMARK   64  A    between atoms: _171  and  _174
REMARK   65  A    between atoms: _174  and  _175
REMARK   66  A    between atoms: _175  and  _176
REMARK   67  A    between atoms: _176  and  _177
REMARK   68  A    between atoms: _177  and  _178
REMARK   69  A    between atoms: _182  and  _184
REMARK   70  A    between atoms: _184  and  _185
REMARK   71  A    between atoms: _184  and  _187
REMARK   72  A    between atoms: _187  and  _188
REMARK   73  A    between atoms: _191  and  _193
REMARK   74  A    between atoms: _193  and  _194
REMARK   75  A    between atoms: _193  and  _196
REMARK   76  A    between atoms: _196  and  _197
REMARK   77  A    between atoms: _204  and  _205
REMARK   78  A    between atoms: _210  and  _212
REMARK   79  A    between atoms: _212  and  _213
REMARK   80  A    between atoms: _212  and  _215
REMARK   81  A    between atoms: _215  and  _216
REMARK   82  A    between atoms: _219  and  _221
REMARK   83  A    between atoms: _221  and  _222
REMARK   84  A    between atoms: _221  and  _224
REMARK   85  A    between atoms: _224  and  _225
REMARK   86  A    between atoms: _228  and  _230
REMARK   87  A    between atoms: _230  and  _231
REMARK   88  A    between atoms: _230  and  _233
REMARK   89  A    between atoms: _233  and  _234
REMARK   90  A    between atoms: _238  and  _239
REMARK   91  A    between atoms: _244  and  _246
REMARK   92  A    between atoms: _246  and  _247
REMARK   93  A    between atoms: _250  and  _252
REMARK   94  A    between atoms: _252  and  _253
REMARK   95  A    between atoms: _252  and  _255
REMARK   96  A    between atoms: _255  and  _256
REMARK   97  A    between atoms: _262  and  _264
REMARK   98  A    between atoms: _264  and  _265
REMARK   99  A    between atoms: _267  and  _269
REMARK  100  A    between atoms: _269  and  _270
REMARK  101  A    between atoms: _273  and  _275
REMARK  102  A    between atoms: _275  and  _276
REMARK  103  A    between atoms: _275  and  _278
REMARK  104  A    between atoms: _278  and  _279
REMARK  105  A    between atoms: _282  and  _284
REMARK  106  A    between atoms: _284  and  _285
REMARK  107  A    between atoms: _284  and  _287
REMARK  108  A    between atoms: _287  and  _288
REMARK  109  A    between atoms: _290  and  _292
REMARK  110  A    between atoms: _292  and  _293
REMARK  111  A    between atoms: _292  and  _295
REMARK  112  A    between atoms: _295  and  _296
REMARK  113  A    between atoms: _296  and  _297
REMARK  114  A    between atoms: _297  and  _298
REMARK  115  A    between atoms: _307  and  _309
REMARK  116  A    between atoms: _309  and  _310
REMARK  117  A    between atoms: _309  and  _312
REMARK  118  A    between atoms: _312  and  _313
REMARK  119  A    between atoms: _313  and  _314
REMARK  120  A    between atoms: _317  and  _319
REMARK  121  A    between atoms: _319  and  _320
REMARK  122  A    between atoms: _319  and  _322
REMARK  123  A    between atoms: _322  and  _323
REMARK  124  A    between atoms: _326  and  _328
REMARK  125  A    between atoms: _328  and  _329
REMARK  126  A    between atoms: _328  and  _331
REMARK  127  A    between atoms: _331  and  _332
REMARK  128  A    between atoms: _335  and  _337
REMARK  129  A    between atoms: _337  and  _338
REMARK  130  A    between atoms: _337  and  _340
REMARK  131  A    between atoms: _340  and  _341
REMARK  132  A    between atoms: _341  and  _342
REMARK  133  A    between atoms: _342  and  _343
REMARK  134  A    between atoms: _352  and  _354
REMARK  135  A    between atoms: _354  and  _355
REMARK  136  A    between atoms: _354  and  _357
REMARK  137  A    between atoms: _357  and  _358
REMARK  138  A    between atoms: _358  and  _359
REMARK  139  A    between atoms: _362  and  _364
REMARK  140  A    between atoms: _364  and  _365
REMARK  141  A    between atoms: _368  and  _370
REMARK  142  A    between atoms: _370  and  _371
REMARK  143  A    between atoms: _370  and  _373
REMARK  144  A    between atoms: _373  and  _374
REMARK  145  A    between atoms: _374  and  _375
REMARK  146  A    between atoms: _375  and  _376
REMARK  147  A    between atoms: _385  and  _387
REMARK  148  A    between atoms: _387  and  _388
REMARK  149  A    between atoms: _387  and  _390
REMARK  150  A    between atoms: _390  and  _391
REMARK  151  A    between atoms: _391  and  _392
REMARK  152  A    between atoms: _392  and  _393
REMARK  153  A    between atoms: _402  and  _404
REMARK  154  A    between atoms: _404  and  _405
REMARK  155  A    between atoms: _404  and  _407
REMARK  156  A    between atoms: _407  and  _408
REMARK  157  A    between atoms: _411  and  _413
REMARK  158  A    between atoms: _413  and  _414
REMARK  159  A    between atoms: _413  and  _416
REMARK  160  A    between atoms: _416  and  _417
REMARK  161  A    between atoms: _420  and  _422
REMARK  162  A    between atoms: _422  and  _423
REMARK  163  A    between atoms: _426  and  _428
REMARK  164  A    between atoms: _428  and  _429
REMARK  165  A    between atoms: _428  and  _431
REMARK  166  A    between atoms: _431  and  _432
REMARK  167  A    between atoms: _432  and  _433
REMARK  168  A    between atoms: _438  and  _440
REMARK  169  A    between atoms: _440  and  _441
REMARK  170  A    between atoms: _445  and  _446
REMARK  171  A    between atoms: _451  and  _453
REMARK  172  A    between atoms: _453  and  _454
REMARK  173  A    between atoms: _453  and  _456
REMARK  174  A    between atoms: _456  and  _457
REMARK  175  A    between atoms: _457  and  _458
REMARK  176  A    between atoms: _458  and  _459
REMARK  177  A    between atoms: _459  and  _460
REMARK  178  A    between atoms: _464  and  _466
REMARK  179  A    between atoms: _466  and  _467
REMARK  180  A    between atoms: _466  and  _469
REMARK  181  A    between atoms: _469  and  _470
REMARK  182  A    between atoms: _470  and  _471
REMARK  183  A    between atoms: _473  and  _475
REMARK  184  A    between atoms: _475  and  _476
REMARK  185  A    between atoms: _475  and  _478
REMARK  186  A    between atoms: _478  and  _479
REMARK  187  A    between atoms: _483  and  _484
REMARK  188  A    between atoms: _489  and  _491
REMARK  189  A    between atoms: _491  and  _492
REMARK  190  A    between atoms: _491  and  _494
REMARK  191  A    between atoms: _494  and  _495
REMARK  192  A    between atoms: _500  and  _502
REMARK  193  A    between atoms: _502  and  _503
REMARK  194  A    between atoms: _502  and  _505
REMARK  195  A    between atoms: _505  and  _506
REMARK  196  A    between atoms: _509  and  _511
REMARK  197  A    between atoms: _511  and  _512
REMARK  198  A    between atoms: _511  and  _514
REMARK  199  A    between atoms: _517  and  _519
REMARK  200  A    between atoms: _519  and  _520
REMARK  201  A    between atoms: _519  and  _522
REMARK  202  A    between atoms: _522  and  _523
REMARK  203  A    between atoms: _523  and  _524
REMARK  204  A    between atoms: _524  and  _525
REMARK  205  A    between atoms: _525  and  _526
REMARK  206  A    between atoms: _530  and  _532
REMARK  207  A    between atoms: _532  and  _533
REMARK  208  A    between atoms: _536  and  _538
REMARK  209  A    between atoms: _538  and  _539
REMARK  210  A    between atoms: _538  and  _541
REMARK  211  A    between atoms: _541  and  _542
REMARK  212  A    between atoms: _545  and  _547
REMARK  213  A    between atoms: _547  and  _548
REMARK  214  A    between atoms: _547  and  _550
REMARK  215  A    between atoms: _550  and  _551
REMARK  216  A    between atoms: _554  and  _556
REMARK  217  A    between atoms: _556  and  _557
REMARK  218  A    between atoms: _556  and  _559
REMARK  219  A    between atoms: _559  and  _560
REMARK  220  A    between atoms: _563  and  _565
REMARK  221  A    between atoms: _565  and  _566
REMARK  222  A    between atoms: _565  and  _568
REMARK  223  A    between atoms: _568  and  _569
REMARK  224  A    between atoms: _569  and  _570
REMARK  225  A    between atoms: _573  and  _575
REMARK  226  A    between atoms: _575  and  _576
REMARK  227  A    between atoms: _575  and  _578
REMARK  228  A    between atoms: _578  and  _579
REMARK  229  A    between atoms: _579  and  _580
REMARK  230  A    between atoms: _580  and  _581
REMARK  231  A    between atoms: _581  and  _582
REMARK  232  A    between atoms: _586  and  _588
REMARK  233  A    between atoms: _588  and  _589
REMARK  234  A    between atoms: _588  and  _591
REMARK  235  A    between atoms: _591  and  _592
REMARK                            x       y       z     vdW  Elec       q    Type
REMARK                         _______ _______ _______ _____ _____    ______ ____
ROOT
ATOM      1  C   ARG A   1      14.033  26.745  43.877  0.00  0.00    +0.238 C 
ATOM      2  O   ARG A   1      14.965  27.164  44.564  0.00  0.00    -0.274 OA
ATOM      3  N   ARG A   2      13.924  25.480  43.482  0.00  0.00    -0.298 N 
ATOM      4  H   ARG A   2      13.127  25.214  42.869  0.00  0.00    +0.150 HD
ENDROOT
BRANCH   1   5
ATOM      5  CA  ARG A   1      12.934  27.686  43.397  0.00  0.00    +0.145 C 
BRANCH   5   6
ATOM      6  N   ARG A   1      12.734  27.546  41.955  0.00  0.00    -0.238 NA
ATOM      7  H   ARG A   1      11.785  27.321  41.595  0.00  0.00    +0.142 HD
ENDBRANCH   5   6
BRANCH   5   8
ATOM      8  CB  ARG A   1      11.640  27.397  44.159  0.00  0.00    +0.030 C 
BRANCH   8   9
ATOM      9  CG  ARG A   1      10.646  28.550  44.159  0.00  0.00    +0.045 C 
BRANCH   9  10
ATOM     10  CD  ARG A   1       9.282  28.125  44.706  0.00  0.00    +0.174 C 
BRANCH  10  11
ATOM     11  NE  ARG A   1       8.262  29.143  44.439  0.00  0.00    -0.265 N 
ATOM     12  HE  ARG A   1       8.244  29.981  45.055  0.00  0.00    +0.259 HD
ATOM     13  CZ  ARG A   1       7.357  29.072  43.465  0.00  0.00    +0.342 C 
ATOM     14  NH2 ARG A   1       6.471  30.052  43.295  0.00  0.00    -0.292 N 
ATOM     15 HH21 ARG A   1       6.483  30.879  43.925  0.00  0.00    +0.255 HD
ATOM     16 HH22 ARG A   1       5.767  29.990  42.532  0.00  0.00    +0.255 HD
ATOM     17  NH1 ARG A   1       7.326  28.012  42.667  0.00  0.00    -0.292 N 
ATOM     18 HH11 ARG A   1       8.008  27.239  42.803  0.00  0.00    +0.255 HD
ATOM     19 HH12 ARG A   1       6.620  27.955  41.906  0.00  0.00    +0.255 HD
ENDBRANCH  10  11
ENDBRANCH   9  10
ENDBRANCH   8   9
ENDBRANCH   5   8
ENDBRANCH   1   5
BRANCH   3  20
ATOM     20  CA  ARG A   2      14.879  24.451  43.875  0.00  0.00    +0.137 C 
BRANCH  20  21
ATOM     21  C   ARG A   2      16.285  24.684  43.342  0.00  0.00    +0.227 C 
ATOM     22  O   ARG A   2      17.262  24.360  44.016  0.00  0.00    -0.286 OA
ENDBRANCH  20  21
BRANCH  20  23
ATOM     23  CB  ARG A   2      14.376  23.075  43.461  0.00  0.00    +0.031 C 
BRANCH  23  24
ATOM     24  CG  ARG A   2      13.053  22.753  44.094  0.00  0.00    +0.045 C 
BRANCH  24  25
ATOM     25  CD  ARG A   2      12.803  21.274  44.144  0.00  0.00    +0.174 C 
BRANCH  25  26
ATOM     26  NE  ARG A   2      11.409  21.026  44.486  0.00  0.00    -0.265 N 
ATOM     27  HE  ARG A   2      10.793  21.851  44.631  0.00  0.00    +0.259 HD
ATOM     28  CZ  ARG A   2      10.869  19.823  44.626  0.00  0.00    +0.342 C 
ATOM     29  NH2 ARG A   2       9.581  19.707  44.933  0.00  0.00    -0.292 N 
ATOM     30 HH21 ARG A   2       8.999  20.559  45.063  0.00  0.00    +0.255 HD
ATOM     31 HH22 ARG A   2       9.156  18.764  45.043  0.00  0.00    +0.255 HD
ATOM     32  NH1 ARG A   2      11.612  18.737  44.457  0.00  0.00    -0.292 N 
ATOM     33 HH11 ARG A   2      11.187  17.794  44.567  0.00  0.00    +0.255 HD
ATOM     34 HH12 ARG A   2      12.619  18.829  44.214  0.00  0.00    +0.255 HD
ENDBRANCH  25  26
ENDBRANCH  24  25
ENDBRANCH  23  24
ENDBRANCH  20  23
ENDBRANCH   3  20
TORSDOF 12
REMARK  Name = ../refined-set-2016/2gzl/2gzl_pocket.pdb
REMARK  235 active torsions:
REMARK  status: ('A' for Active; 'I' for Inactive)
REMARK    1  A    between atoms: _1  and  _3
REMARK    2  A    between atoms: _3  and  _4
REMARK    3  A    between atoms: _3  and  _6
REMARK    4  A    between atoms: _6  and  _7
REMARK    5  A    between atoms: _13  and  _15
REMARK    6  A    between atoms: _24  and  _27
REMARK    7  A    between atoms: _32  and  _33
REMARK    8  A    between atoms: _41  and  _43
REMARK    9  A    between atoms: _43  and  _44
REMARK   10  A    between atoms: _43  and  _46
REMARK   11  A    between atoms: _46  and  _47
REMARK   12  A    between atoms: _50  and  _52
REMARK   13  A    between atoms: _52  and  _53
REMARK   14  A    between atoms: _56  and  _58
REMARK   15  A    between atoms: _58  and  _59
REMARK   16  A    between atoms: _58  and  _61
REMARK   17  A    between atoms: _61  and  _62
REMARK   18  A    between atoms: _67  and  _69
REMARK   19  A    between atoms: _69  and  _70
REMARK   20  A    between atoms: _69  and  _72
REMARK   21  A    between atoms: _72  and  _73
REMARK   22  A    between atoms: _75  and  _77
REMARK   23  A    between atoms: _77  and  _78
REMARK   24  A    between atoms: _77  and  _80
REMARK   25  A    between atoms: _80  and  _81
REMARK   26  A    between atoms: _84  and  _86
REMARK   27  A    between atoms: _86  and  _87
REMARK   28  A    between atoms: _89  and  _91
REMARK   29  A    between atoms: _91  and  _92
REMARK   30  A    between atoms: _91  and  _94
REMARK   31  A    between atoms: _94  and  _95
REMARK   32  A    between atoms: _98  and  _100
REMARK   33  A    between atoms: _100  and  _101
REMARK   34  A    between atoms: _100  and  _103
REMARK   35  A    between atoms: _106  and  _108
REMARK   36  A    between atoms: _108  and  _109
REMARK   37  A    between atoms: _108  and  _111
REMARK   38  A    between atoms: _111  and  _112
REMARK   39  A    between atoms: _113  and  ZN_595
REMARK   40  A    between atoms: _117  and  _119
REMARK   41  A    between atoms: _119  and  _120
REMARK   42  A    between atoms: _123  and  _125
REMARK   43  A    between atoms: _125  and  _126
REMARK   44  A    between atoms: _125  and  _128
REMARK   45  A    between atoms: _128  and  _129
REMARK   46  A    between atoms: _132  and  _134
REMARK   47  A    between atoms: _134  and  _135
REMARK   48  A    between atoms: _134  and  _137
REMARK   49  A    between atoms: _137  and  _138
REMARK   50  A    between atoms: _141  and  _143
REMARK   51  A    between atoms: _143  and  _144
REMARK   52  A    between atoms: _146  and  _148
REMARK   53  A    between atoms: _148  and  _149
REMARK   54  A    between atoms: _148  and  _151
REMARK   55  A    between atoms: _151  and  _152
REMARK   56  A    between atoms: _155  and  _157
REMARK   57  A    between atoms: _157  and  _158
REMARK   58  A    between atoms: _157  and  _160
REMARK   59  A    between atoms: _160  and  _161
REMARK   60  A    between atoms: _164  and  _166
REMARK   61  A    between atoms: _166  and  _167
REMARK   62  A    between atoms: _169  and  _171
REMARK   63  A    between atoms: _171  and  _172
REMARK   64  A    between atoms: _171  and  _174
REMARK   65  A    between atoms: _174  and  _175
REMARK   66  A    between atoms: _175  and  _176
REMARK   67  A    between atoms: _176  and  _177
REMARK   68  A    between atoms: _177  and  _178
REMARK   69  A    between atoms: _182  and  _184
REMARK   70  A    between atoms: _184  and  _185
REMARK   71  A    between atoms: _184  and  _187
REMARK   72  A    between atoms: _187  and  _188
REMARK   73  A    between atoms: _191  and  _193
REMARK   74  A    between atoms: _193  and  _194
REMARK   75  A    between atoms: _193  and  _196
REMARK   76  A    between atoms: _196  and  _197
REMARK   77  A    between atoms: _204  and  _205
REMARK   78  A    between atoms: _210  and  _212
REMARK   79  A    between atoms: _212  and  _213
REMARK   80  A    between atoms: _212  and  _215
REMARK   81  A    between atoms: _215  and  _216
REMARK   82  A    between atoms: _219  and  _221
REMARK   83  A    between atoms: _221  and  _222
REMARK   84  A    between atoms: _221  and  _224
REMARK   85  A    between atoms: _224  and  _225
REMARK   86  A    between atoms: _228  and  _230
REMARK   87  A    between atoms: _230  and  _231
REMARK   88  A    between atoms: _230  and  _233
REMARK   89  A    between atoms: _233  and  _234
REMARK   90  A    between atoms: _238  and  _239
REMARK   91  A    between atoms: _244  and  _246
REMARK   92  A    between atoms: _246  and  _247
REMARK   93  A    between atoms: _250  and  _252
REMARK   94  A    between atoms: _252  and  _253
REMARK   95  A    between atoms: _252  and  _255
REMARK   96  A    between atoms: _255  and  _256
REMARK   97  A    between atoms: _262  and  _264
REMARK   98  A    between atoms: _264  and  _265
REMARK   99  A    between atoms: _267  and  _269
REMARK  100  A    between atoms: _269  and  _270
REMARK  101  A    between atoms: _273  and  _275
REMARK  102  A    between atoms: _275  and  _276
REMARK  103  A    between atoms: _275  and  _278
REMARK  104  A    between atoms: _278  and  _279
REMARK  105  A    between atoms: _282  and  _284
REMARK  106  A    between atoms: _284  and  _285
REMARK  107  A    between atoms: _284  and  _287
REMARK  108  A    between atoms: _287  and  _288
REMARK  109  A    between atoms: _290  and  _292
REMARK  110  A    between atoms: _292  and  _293
REMARK  111  A    between atoms: _292  and  _295
REMARK  112  A    between atoms: _295  and  _296
REMARK  113  A    between atoms: _296  and  _297
REMARK  114  A    between atoms: _297  and  _298
REMARK  115  A    between atoms: _307  and  _309
REMARK  116  A    between atoms: _309  and  _310
REMARK  117  A    between atoms: _309  and  _312
REMARK  118  A    between atoms: _312  and  _313
REMARK  119  A    between atoms: _313  and  _314
REMARK  120  A    between atoms: _317  and  _319
REMARK  121  A    between atoms: _319  and  _320
REMARK  122  A    between atoms: _319  and  _322
REMARK  123  A    between atoms: _322  and  _323
REMARK  124  A    between atoms: _326  and  _328
REMARK  125  A    between atoms: _328  and  _329
REMARK  126  A    between atoms: _328  and  _331
REMARK  127  A    between atoms: _331  and  _332
REMARK  128  A    between atoms: _335  and  _337
REMARK  129  A    between atoms: _337  and  _338
REMARK  130  A    between atoms: _337  and  _340
REMARK  131  A    between atoms: _340  and  _341
REMARK  132  A    between atoms: _341  and  _342
REMARK  133  A    between atoms: _342  and  _343
REMARK  134  A    between atoms: _352  and  _354
REMARK  135  A    between atoms: _354  and  _355
REMARK  136  A    between atoms: _354  and  _357
REMARK  137  A    between atoms: _357  and  _358
REMARK  138  A    between atoms: _358  and  _359
REMARK  139  A    between atoms: _362  and  _364
REMARK  140  A    between atoms: _364  and  _365
REMARK  141  A    between atoms: _368  and  _370
REMARK  142  A    between atoms: _370  and  _371
REMARK  143  A    between atoms: _370  and  _373
REMARK  144  A    between atoms: _373  and  _374
REMARK  145  A    between atoms: _374  and  _375
REMARK  146  A    between atoms: _375  and  _376
REMARK  147  A    between atoms: _385  and  _387
REMARK  148  A    between atoms: _387  and  _388
REMARK  149  A    between atoms: _387  and  _390
REMARK  150  A    between atoms: _390  and  _391
REMARK  151  A    between atoms: _391  and  _392
REMARK  152  A    between atoms: _392  and  _393
REMARK  153  A    between atoms: _402  and  _404
REMARK  154  A    between atoms: _404  and  _405
REMARK  155  A    between atoms: _404  and  _407
REMARK  156  A    between atoms: _407  and  _408
REMARK  157  A    between atoms: _411  and  _413
REMARK  158  A    between atoms: _413  and  _414
REMARK  159  A    between atoms: _413  and  _416
REMARK  160  A    between atoms: _416  and  _417
REMARK  161  A    between atoms: _420  and  _422
REMARK  162  A    between atoms: _422  and  _423
REMARK  163  A    between atoms: _426  and  _428
REMARK  164  A    between atoms: _428  and  _429
REMARK  165  A    between atoms: _428  and  _431
REMARK  166  A    between atoms: _431  and  _432
REMARK  167  A    between atoms: _432  and  _433
REMARK  168  A    between atoms: _438  and  _440
REMARK  169  A    between atoms: _440  and  _441
REMARK  170  A    between atoms: _445  and  _446
REMARK  171  A    between atoms: _451  and  _453
REMARK  172  A    between atoms: _453  and  _454
REMARK  173  A    between atoms: _453  and  _456
REMARK  174  A    between atoms: _456  and  _457
REMARK  175  A    between atoms: _457  and  _458
REMARK  176  A    between atoms: _458  and  _459
REMARK  177  A    between atoms: _459  and  _460
REMARK  178  A    between atoms: _464  and  _466
REMARK  179  A    between atoms: _466  and  _467
REMARK  180  A    between atoms: _466  and  _469
REMARK  181  A    between atoms: _469  and  _470
REMARK  182  A    between atoms: _470  and  _471
REMARK  183  A    between atoms: _473  and  _475
REMARK  184  A    between atoms: _475  and  _476
REMARK  185  A    between atoms: _475  and  _478
REMARK  186  A    between atoms: _478  and  _479
REMARK  187  A    between atoms: _483  and  _484
REMARK  188  A    between atoms: _489  and  _491
REMARK  189  A    between atoms: _491  and  _492
REMARK  190  A    between atoms: _491  and  _494
REMARK  191  A    between atoms: _494  and  _495
REMARK  192  A    between atoms: _500  and  _502
REMARK  193  A    between atoms: _502  and  _503
REMARK  194  A    between atoms: _502  and  _505
REMARK  195  A    between atoms: _505  and  _506
REMARK  196  A    between atoms: _509  and  _511
REMARK  197  A    between atoms: _511  and  _512
REMARK  198  A    between atoms: _511  and  _514
REMARK  199  A    between atoms: _517  and  _519
REMARK  200  A    between atoms: _519  and  _520
REMARK  201  A    between atoms: _519  and  _522
REMARK  202  A    between atoms: _522  and  _523
REMARK  203  A    between atoms: _523  and  _524
REMARK  204  A    between atoms: _524  and  _525
REMARK  205  A    between atoms: _525  and  _526
REMARK  206  A    between atoms: _530  and  _532
REMARK  207  A    between atoms: _532  and  _533
REMARK  208  A    between atoms: _536  and  _538
REMARK  209  A    between atoms: _538  and  _539
REMARK  210  A    between atoms: _538  and  _541
REMARK  211  A    between atoms: _541  and  _542
REMARK  212  A    between atoms: _545  and  _547
REMARK  213  A    between atoms: _547  and  _548
REMARK  214  A    between atoms: _547  and  _550
REMARK  215  A    between atoms: _550  and  _551
REMARK  216  A    between atoms: _554  and  _556
REMARK  217  A    between atoms: _556  and  _557
REMARK  218  A    between atoms: _556  and  _559
REMARK  219  A    between atoms: _559  and  _560
REMARK  220  A    between atoms: _563  and  _565
REMARK  221  A    between atoms: _565  and  _566
REMARK  222  A    between atoms: _565  and  _568
REMARK  223  A    between atoms: _568  and  _569
REMARK  224  A    between atoms: _569  and  _570
REMARK  225  A    between atoms: _573  and  _575
REMARK  226  A    between atoms: _575  and  _576
REMARK  227  A    between atoms: _575  and  _578
REMARK  228  A    between atoms: _578  and  _579
REMARK  229  A    between atoms: _579  and  _580
REMARK  230  A    between atoms: _580  and  _581
REMARK  231  A    between atoms: _581  and  _582
REMARK  232  A    between atoms: _586  and  _588
REMARK  233  A    between atoms: _588  and  _589
REMARK  234  A    between atoms: _588  and  _591
REMARK  235  A    between atoms: _591  and  _592
REMARK                            x       y       z     vdW  Elec       q    Type
REMARK                         _______ _______ _______ _____ _____    ______ ____
ROOT
ATOM      1  CA  LYS A   7      13.368   3.310  30.640  0.00  0.00    +0.149 C 
ENDROOT
BRANCH   1   2
ATOM      2  C   LYS A   7      14.819   3.567  31.082  0.00  0.00    +0.241 C 
ATOM      3  O   LYS A   7      15.538   2.637  31.453  0.00  0.00    -0.273 OA
ATOM      4  N   MET A   8      15.250   4.822  31.015  0.00  0.00    -0.297 N 
ATOM      5  H   MET A   8      14.591   5.569  30.718  0.00  0.00    +0.150 HD
BRANCH   4   6
ATOM      6  CA  MET A   8      16.628   5.179  31.349  0.00  0.00    +0.149 C 
BRANCH   6   7
ATOM      7  C   MET A   8      16.810   5.551  32.821  0.00  0.00    +0.241 C 
ATOM      8  N   LEU A   9      15.774   6.133  33.423  0.00  0.00    -0.297 N 
ATOM      9  H   LEU A   9      14.871   6.207  32.912  0.00  0.00    +0.150 HD
ATOM     10  O   MET A   8      17.869   5.292  33.404  0.00  0.00    -0.273 OA
BRANCH   8  11
ATOM     11  CA  LEU A   9      15.866   6.676  34.790  0.00  0.00    +0.149 C 
BRANCH  11  12
ATOM     12  C   LEU A   9      16.551   5.789  35.857  0.00  0.00    +0.244 C 
ATOM     13  O   LEU A   9      17.341   6.301  36.635  0.00  0.00    -0.273 OA
ATOM     14  N   PRO A  10      16.252   4.476  35.911  0.00  0.00    -0.272 N 
ATOM     15  CA  PRO A  10      16.931   3.705  36.963  0.00  0.00    +0.152 C 
ATOM     16  CB  PRO A  10      16.304   2.306  36.844  0.00  0.00    +0.031 C 
ATOM     17  CG  PRO A  10      15.067   2.489  36.046  0.00  0.00    +0.024 C 
ATOM     18  CD  PRO A  10      15.339   3.627  35.125  0.00  0.00    +0.094 C 
BRANCH  15  19
ATOM     19  C   PRO A  10      18.457   3.616  36.790  0.00  0.00    +0.241 C 
ATOM     20  O   PRO A  10      19.178   3.429  37.771  0.00  0.00    -0.273 OA
ATOM     21  N   HIS A  11      18.931   3.774  35.559  0.00  0.00    -0.297 N 
ATOM     22  H   HIS A  11      18.276   4.060  34.804  0.00  0.00    +0.150 HD
BRANCH  21  23
ATOM     23  CA  HIS A  11      20.337   3.562  35.226  0.00  0.00    +0.155 C 
BRANCH  23  24
ATOM     24  C   HIS A  11      21.158   4.830  35.232  0.00  0.00    +0.241 C 
ATOM     25  N   ILE A  12      20.488   5.968  35.327  0.00  0.00    -0.298 N 
ATOM     26  H   ILE A  12      19.456   5.943  35.450  0.00  0.00    +0.150 HD
ATOM     27  O   HIS A  11      22.385   4.777  35.160  0.00  0.00    -0.273 OA
BRANCH  25  28
ATOM     28  CA  ILE A  12      21.171   7.258  35.263  0.00  0.00    +0.137 C 
BRANCH  28  29
ATOM     29  C   ILE A  12      22.234   7.486  36.356  0.00  0.00    +0.227 C 
ATOM     30  O   ILE A  12      23.331   7.947  36.043  0.00  0.00    -0.286 OA
ENDBRANCH  28  29
BRANCH  28  31
ATOM     31  CB  ILE A  12      20.157   8.439  35.097  0.00  0.00    +0.026 C 
ATOM     32  CG2 ILE A  12      20.746   9.772  35.590  0.00  0.00    +0.002 C 
BRANCH  31  33
ATOM     33  CG1 ILE A  12      19.725   8.501  33.620  0.00  0.00    +0.002 C 
ATOM     34  CD1 ILE A  12      18.632   9.500  33.289  0.00  0.00    +0.000 C 
ENDBRANCH  31  33
ENDBRANCH  28  31
ENDBRANCH  25  28
ENDBRANCH  23  24
BRANCH  23  35
ATOM     35  CB  HIS A  11      20.453   2.897  33.861  0.00  0.00    +0.076 C 
BRANCH  35  36
ATOM     36  CG  HIS A  11      19.596   1.687  33.722  0.00  0.00    +0.082 A 
ATOM     37  ND1 HIS A  11      19.895   0.495  34.342  0.00  0.00    -0.227 NA
ATOM     38  CE1 HIS A  11      18.962  -0.394  34.051  0.00  0.00    +0.199 A 
ATOM     39  NE2 HIS A  11      18.065   0.181  33.271  0.00  0.00    -0.221 NA
ATOM     40  CD2 HIS A  11      18.439   1.485  33.049  0.00  0.00    +0.115 A 
ENDBRANCH  35  36
ENDBRANCH  23  35
ENDBRANCH  21  23
ENDBRANCH  15  19
ENDBRANCH  11  12
BRANCH  11  41
ATOM     41  CB  LEU A   9      14.498   7.166  35.287  0.00  0.00    +0.029 C 
BRANCH  41  42
ATOM     42  CG  LEU A   9      14.420   8.234  36.388  0.00  0.00    +0.002 C 
ATOM     43  CD2 LEU A   9      12.958   8.543  36.675  0.00  0.00    +0.000 C 
ATOM     44  CD1 LEU A   9      15.180   9.536  36.065  0.00  0.00    +0.000 C 
ENDBRANCH  41  42
ENDBRANCH  11  41
ENDBRANCH   8  11
ENDBRANCH   6   7
BRANCH   6  45
ATOM     45  CB  MET A   8      17.131   6.319  30.454  0.00  0.00    +0.041 C 
BRANCH  45  46
ATOM     46  CG  MET A   8      17.105   6.008  28.966  0.00  0.00    +0.060 C 
BRANCH  46  47
ATOM     47  SD  MET A   8      18.264   4.683  28.581  0.00  0.00    -0.139 S 
ATOM     48  CE  MET A   8      17.843   4.339  26.873  0.00  0.00    +0.069 C 
ENDBRANCH  46  47
ENDBRANCH  45  46
ENDBRANCH   6  45
ENDBRANCH   4   6
ENDBRANCH   1   2
BRANCH   1  50
ATOM     49  C   PRO A   6      13.889   2.471  28.412  0.00  0.00    +0.241 C 
ATOM     50  N   LYS A   7      13.363   2.282  29.616  0.00  0.00    -0.297 N 
ATOM     51  H   LYS A   7      12.931   1.362  29.834  0.00  0.00    +0.150 HD
ATOM     52  O   PRO A   6      14.377   3.549  28.033  0.00  0.00    -0.273 OA
BRANCH  49  55
ATOM     53  C   ALA A   5      13.664   2.234  25.166  0.00  0.00    +0.244 C 
ATOM     54  N   PRO A   6      14.320   1.570  26.135  0.00  0.00    -0.272 N 
ATOM     55  CA  PRO A   6      13.848   1.261  27.484  0.00  0.00    +0.152 C 
ATOM     56  CB  PRO A   6      14.839   0.196  27.959  0.00  0.00    +0.031 C 
ATOM     57  CG  PRO A   6      16.089   0.490  27.225  0.00  0.00    +0.024 C 
ATOM     58  CD  PRO A   6      15.678   1.044  25.893  0.00  0.00    +0.094 C 
ATOM     59  O   ALA A   5      14.155   2.421  24.051  0.00  0.00    -0.273 OA
BRANCH  53  60
ATOM     60  CA  ALA A   5      12.261   2.758  25.479  0.00  0.00    +0.149 C 
ATOM     61  CB  ALA A   5      11.204   1.660  25.259  0.00  0.00    +0.031 C 
BRANCH  60  64
ATOM     62  C   GLN A   4      10.984   4.711  24.687  0.00  0.00    +0.241 C 
ATOM     63  O   GLN A   4      10.164   4.668  25.602  0.00  0.00    -0.273 OA
ATOM     64  N   ALA A   5      12.019   3.879  24.583  0.00  0.00    -0.297 N 
ATOM     65  H   ALA A   5      12.698   4.041  23.812  0.00  0.00    +0.150 HD
BRANCH  62  66
ATOM     66  CA  GLN A   4      10.860   5.748  23.573  0.00  0.00    +0.149 C 
BRANCH  66  69
ATOM     67  C   ALA A   3      12.959   6.933  23.900  0.00  0.00    +0.241 C 
ATOM     68  O   ALA A   3      12.566   7.455  24.948  0.00  0.00    -0.273 OA
ATOM     69  N   GLN A   4      12.190   6.169  23.130  0.00  0.00    -0.297 N 
ATOM     70  H   GLN A   4      12.539   5.866  22.198  0.00  0.00    +0.150 HD
BRANCH  67  71
ATOM     71  CA  ALA A   3      14.386   7.132  23.434  0.00  0.00    +0.149 C 
ATOM     72  CB  ALA A   3      15.308   6.187  24.213  0.00  0.00    +0.031 C 
BRANCH  71  74
ATOM     73  C   ILE A   2      15.707   9.129  22.917  0.00  0.00    +0.241 C 
ATOM     74  N   ALA A   3      14.782   8.522  23.652  0.00  0.00    -0.297 N 
ATOM     75  H   ALA A   3      14.320   9.058  24.414  0.00  0.00    +0.150 HD
ATOM     76  O   ILE A   2      16.252   8.597  21.941  0.00  0.00    -0.273 OA
BRANCH  73  77
ATOM     77  CA  ILE A   2      16.085  10.548  23.365  0.00  0.00    +0.148 C 
BRANCH  77  80
ATOM     78  C   ILE A   1      17.533  10.727  25.312  0.00  0.00    +0.238 C 
ATOM     79  O   ILE A   1      16.589  10.981  26.055  0.00  0.00    -0.274 OA
ATOM     80  N   ILE A   2      17.394  10.530  24.007  0.00  0.00    -0.297 N 
ATOM     81  H   ILE A   2      18.240  10.358  23.427  0.00  0.00    +0.150 HD
BRANCH  78  82
ATOM     82  CA  ILE A   1      18.948  10.649  25.865  0.00  0.00    +0.145 C 
BRANCH  82  83
ATOM     83  N   ILE A   1      19.205  11.868  26.623  0.00  0.00    -0.238 NA
ATOM     84  H   ILE A   1      19.056  11.866  27.652  0.00  0.00    +0.142 HD
ENDBRANCH  82  83
BRANCH  82  85
ATOM     85  CB  ILE A   1      19.107   9.392  26.740  0.00  0.00    +0.025 C 
ATOM     86  CG2 ILE A   1      18.822   8.104  25.928  0.00  0.00    +0.002 C 
BRANCH  85  87
ATOM     87  CG1 ILE A   1      20.512   9.343  27.355  0.00  0.00    +0.002 C 
ATOM     88  CD1 ILE A   1      20.583   8.537  28.644  0.00  0.00    +0.000 C 
ENDBRANCH  85  87
ENDBRANCH  82  85
ENDBRANCH  78  82
ENDBRANCH  77  80
BRANCH  77  89
ATOM     89  CB  ILE A   2      16.050  11.547  22.182  0.00  0.00    +0.027 C 
ATOM     90  CG2 ILE A   2      14.666  11.602  21.556  0.00  0.00    +0.002 C 
BRANCH  89  91
ATOM     91  CG1 ILE A   2      16.478  12.949  22.642  0.00  0.00    +0.002 C 
ATOM     92  CD1 ILE A   2      17.237  13.738  21.575  0.00  0.00    +0.000 C 
ENDBRANCH  89  91
ENDBRANCH  77  89
ENDBRANCH  73  77
ENDBRANCH  71  74
ENDBRANCH  67  71
ENDBRANCH  66  69
BRANCH  66  93
ATOM     93  CB  GLN A   4      10.054   5.157  22.403  0.00  0.00    +0.039 C 
BRANCH  93  94
ATOM     94  CG  GLN A   4       8.564   5.014  22.682  0.00  0.00    +0.087 C 
BRANCH  94  95
ATOM     95  CD  GLN A   4       7.885   6.352  22.931  0.00  0.00    +0.219 C 
ATOM     96  NE2 GLN A   4       6.973   6.383  23.892  0.00  0.00    -0.329 N 
ATOM     97 HE21 GLN A   4       6.758   5.521  24.433  0.00  0.00    +0.145 HD
ATOM     98 HE22 GLN A   4       6.473   7.269  24.106  0.00  0.00    +0.145 HD
ATOM     99  OE1 GLN A   4       8.174   7.344  22.265  0.00  0.00    -0.275 OA
ENDBRANCH  94  95
ENDBRANCH  93  94
ENDBRANCH  66  93
ENDBRANCH  62  66
ENDBRANCH  60  64
ENDBRANCH  53  60
ENDBRANCH  49  55
ENDBRANCH   1  50
BRANCH   1 100
ATOM    100  CB  LYS A   7      12.493   2.847  31.809  0.00  0.00    +0.029 C 
BRANCH 100 101
ATOM    101  CG  LYS A   7      12.202   3.902  32.865  0.00  0.00    +0.000 C 
BRANCH 101 102
ATOM    102  CD  LYS A   7      10.913   4.664  32.578  0.00  0.00    -0.024 C 
BRANCH 102 103
ATOM    103  CE  LYS A   7      10.754   5.841  33.555  0.00  0.00    -0.086 C 
BRANCH 103 104
ATOM    104  NZ  LYS A   7       9.661   6.779  33.123  0.00  0.00    +0.380 N 
ATOM    105  HZ1 LYS A   7       9.585   7.559  33.807  0.00  0.00    -0.089 HD
ATOM    106  HZ2 LYS A   7       8.759   6.263  33.082  0.00  0.00    -0.089 HD
ATOM    107  HZ3 LYS A   7       9.886   7.162  32.183  0.00  0.00    -0.089 HD
ENDBRANCH 103 104
ENDBRANCH 102 103
ENDBRANCH 101 102
ENDBRANCH 100 101
ENDBRANCH   1 100
TORSDOF 43
REMARK  Name = ../refined-set-2016/2gzl/2gzl_pocket.pdb
REMARK  235 active torsions:
REMARK  status: ('A' for Active; 'I' for Inactive)
REMARK    1  A    between atoms: _1  and  _3
REMARK    2  A    between atoms: _3  and  _4
REMARK    3  A    between atoms: _3  and  _6
REMARK    4  A    between atoms: _6  and  _7
REMARK    5  A    between atoms: _13  and  _15
REMARK    6  A    between atoms: _24  and  _27
REMARK    7  A    between atoms: _32  and  _33
REMARK    8  A    between atoms: _41  and  _43
REMARK    9  A    between atoms: _43  and  _44
REMARK   10  A    between atoms: _43  and  _46
REMARK   11  A    between atoms: _46  and  _47
REMARK   12  A    between atoms: _50  and  _52
REMARK   13  A    between atoms: _52  and  _53
REMARK   14  A    between atoms: _56  and  _58
REMARK   15  A    between atoms: _58  and  _59
REMARK   16  A    between atoms: _58  and  _61
REMARK   17  A    between atoms: _61  and  _62
REMARK   18  A    between atoms: _67  and  _69
REMARK   19  A    between atoms: _69  and  _70
REMARK   20  A    between atoms: _69  and  _72
REMARK   21  A    between atoms: _72  and  _73
REMARK   22  A    between atoms: _75  and  _77
REMARK   23  A    between atoms: _77  and  _78
REMARK   24  A    between atoms: _77  and  _80
REMARK   25  A    between atoms: _80  and  _81
REMARK   26  A    between atoms: _84  and  _86
REMARK   27  A    between atoms: _86  and  _87
REMARK   28  A    between atoms: _89  and  _91
REMARK   29  A    between atoms: _91  and  _92
REMARK   30  A    between atoms: _91  and  _94
REMARK   31  A    between atoms: _94  and  _95
REMARK   32  A    between atoms: _98  and  _100
REMARK   33  A    between atoms: _100  and  _101
REMARK   34  A    between atoms: _100  and  _103
REMARK   35  A    between atoms: _106  and  _108
REMARK   36  A    between atoms: _108  and  _109
REMARK   37  A    between atoms: _108  and  _111
REMARK   38  A    between atoms: _111  and  _112
REMARK   39  A    between atoms: _113  and  ZN_595
REMARK   40  A    between atoms: _117  and  _119
REMARK   41  A    between atoms: _119  and  _120
REMARK   42  A    between atoms: _123  and  _125
REMARK   43  A    between atoms: _125  and  _126
REMARK   44  A    between atoms: _125  and  _128
REMARK   45  A    between atoms: _128  and  _129
REMARK   46  A    between atoms: _132  and  _134
REMARK   47  A    between atoms: _134  and  _135
REMARK   48  A    between atoms: _134  and  _137
REMARK   49  A    between atoms: _137  and  _138
REMARK   50  A    between atoms: _141  and  _143
REMARK   51  A    between atoms: _143  and  _144
REMARK   52  A    between atoms: _146  and  _148
REMARK   53  A    between atoms: _148  and  _149
REMARK   54  A    between atoms: _148  and  _151
REMARK   55  A    between atoms: _151  and  _152
REMARK   56  A    between atoms: _155  and  _157
REMARK   57  A    between atoms: _157  and  _158
REMARK   58  A    between atoms: _157  and  _160
REMARK   59  A    between atoms: _160  and  _161
REMARK   60  A    between atoms: _164  and  _166
REMARK   61  A    between atoms: _166  and  _167
REMARK   62  A    between atoms: _169  and  _171
REMARK   63  A    between atoms: _171  and  _172
REMARK   64  A    between atoms: _171  and  _174
REMARK   65  A    between atoms: _174  and  _175
REMARK   66  A    between atoms: _175  and  _176
REMARK   67  A    between atoms: _176  and  _177
REMARK   68  A    between atoms: _177  and  _178
REMARK   69  A    between atoms: _182  and  _184
REMARK   70  A    between atoms: _184  and  _185
REMARK   71  A    between atoms: _184  and  _187
REMARK   72  A    between atoms: _187  and  _188
REMARK   73  A    between atoms: _191  and  _193
REMARK   74  A    between atoms: _193  and  _194
REMARK   75  A    between atoms: _193  and  _196
REMARK   76  A    between atoms: _196  and  _197
REMARK   77  A    between atoms: _204  and  _205
REMARK   78  A    between atoms: _210  and  _212
REMARK   79  A    between atoms: _212  and  _213
REMARK   80  A    between atoms: _212  and  _215
REMARK   81  A    between atoms: _215  and  _216
REMARK   82  A    between atoms: _219  and  _221
REMARK   83  A    between atoms: _221  and  _222
REMARK   84  A    between atoms: _221  and  _224
REMARK   85  A    between atoms: _224  and  _225
REMARK   86  A    between atoms: _228  and  _230
REMARK   87  A    between atoms: _230  and  _231
REMARK   88  A    between atoms: _230  and  _233
REMARK   89  A    between atoms: _233  and  _234
REMARK   90  A    between atoms: _238  and  _239
REMARK   91  A    between atoms: _244  and  _246
REMARK   92  A    between atoms: _246  and  _247
REMARK   93  A    between atoms: _250  and  _252
REMARK   94  A    between atoms: _252  and  _253
REMARK   95  A    between atoms: _252  and  _255
REMARK   96  A    between atoms: _255  and  _256
REMARK   97  A    between atoms: _262  and  _264
REMARK   98  A    between atoms: _264  and  _265
REMARK   99  A    between atoms: _267  and  _269
REMARK  100  A    between atoms: _269  and  _270
REMARK  101  A    between atoms: _273  and  _275
REMARK  102  A    between atoms: _275  and  _276
REMARK  103  A    between atoms: _275  and  _278
REMARK  104  A    between atoms: _278  and  _279
REMARK  105  A    between atoms: _282  and  _284
REMARK  106  A    between atoms: _284  and  _285
REMARK  107  A    between atoms: _284  and  _287
REMARK  108  A    between atoms: _287  and  _288
REMARK  109  A    between atoms: _290  and  _292
REMARK  110  A    between atoms: _292  and  _293
REMARK  111  A    between atoms: _292  and  _295
REMARK  112  A    between atoms: _295  and  _296
REMARK  113  A    between atoms: _296  and  _297
REMARK  114  A    between atoms: _297  and  _298
REMARK  115  A    between atoms: _307  and  _309
REMARK  116  A    between atoms: _309  and  _310
REMARK  117  A    between atoms: _309  and  _312
REMARK  118  A    between atoms: _312  and  _313
REMARK  119  A    between atoms: _313  and  _314
REMARK  120  A    between atoms: _317  and  _319
REMARK  121  A    between atoms: _319  and  _320
REMARK  122  A    between atoms: _319  and  _322
REMARK  123  A    between atoms: _322  and  _323
REMARK  124  A    between atoms: _326  and  _328
REMARK  125  A    between atoms: _328  and  _329
REMARK  126  A    between atoms: _328  and  _331
REMARK  127  A    between atoms: _331  and  _332
REMARK  128  A    between atoms: _335  and  _337
REMARK  129  A    between atoms: _337  and  _338
REMARK  130  A    between atoms: _337  and  _340
REMARK  131  A    between atoms: _340  and  _341
REMARK  132  A    between atoms: _341  and  _342
REMARK  133  A    between atoms: _342  and  _343
REMARK  134  A    between atoms: _352  and  _354
REMARK  135  A    between atoms: _354  and  _355
REMARK  136  A    between atoms: _354  and  _357
REMARK  137  A    between atoms: _357  and  _358
REMARK  138  A    between atoms: _358  and  _359
REMARK  139  A    between atoms: _362  and  _364
REMARK  140  A    between atoms: _364  and  _365
REMARK  141  A    between atoms: _368  and  _370
REMARK  142  A    between atoms: _370  and  _371
REMARK  143  A    between atoms: _370  and  _373
REMARK  144  A    between atoms: _373  and  _374
REMARK  145  A    between atoms: _374  and  _375
REMARK  146  A    between atoms: _375  and  _376
REMARK  147  A    between atoms: _385  and  _387
REMARK  148  A    between atoms: _387  and  _388
REMARK  149  A    between atoms: _387  and  _390
REMARK  150  A    between atoms: _390  and  _391
REMARK  151  A    between atoms: _391  and  _392
REMARK  152  A    between atoms: _392  and  _393
REMARK  153  A    between atoms: _402  and  _404
REMARK  154  A    between atoms: _404  and  _405
REMARK  155  A    between atoms: _404  and  _407
REMARK  156  A    between atoms: _407  and  _408
REMARK  157  A    between atoms: _411  and  _413
REMARK  158  A    between atoms: _413  and  _414
REMARK  159  A    between atoms: _413  and  _416
REMARK  160  A    between atoms: _416  and  _417
REMARK  161  A    between atoms: _420  and  _422
REMARK  162  A    between atoms: _422  and  _423
REMARK  163  A    between atoms: _426  and  _428
REMARK  164  A    between atoms: _428  and  _429
REMARK  165  A    between atoms: _428  and  _431
REMARK  166  A    between atoms: _431  and  _432
REMARK  167  A    between atoms: _432  and  _433
REMARK  168  A    between atoms: _438  and  _440
REMARK  169  A    between atoms: _440  and  _441
REMARK  170  A    between atoms: _445  and  _446
REMARK  171  A    between atoms: _451  and  _453
REMARK  172  A    between atoms: _453  and  _454
REMARK  173  A    between atoms: _453  and  _456
REMARK  174  A    between atoms: _456  and  _457
REMARK  175  A    between atoms: _457  and  _458
REMARK  176  A    between atoms: _458  and  _459
REMARK  177  A    between atoms: _459  and  _460
REMARK  178  A    between atoms: _464  and  _466
REMARK  179  A    between atoms: _466  and  _467
REMARK  180  A    between atoms: _466  and  _469
REMARK  181  A    between atoms: _469  and  _470
REMARK  182  A    between atoms: _470  and  _471
REMARK  183  A    between atoms: _473  and  _475
REMARK  184  A    between atoms: _475  and  _476
REMARK  185  A    between atoms: _475  and  _478
REMARK  186  A    between atoms: _478  and  _479
REMARK  187  A    between atoms: _483  and  _484
REMARK  188  A    between atoms: _489  and  _491
REMARK  189  A    between atoms: _491  and  _492
REMARK  190  A    between atoms: _491  and  _494
REMARK  191  A    between atoms: _494  and  _495
REMARK  192  A    between atoms: _500  and  _502
REMARK  193  A    between atoms: _502  and  _503
REMARK  194  A    between atoms: _502  and  _505
REMARK  195  A    between atoms: _505  and  _506
REMARK  196  A    between atoms: _509  and  _511
REMARK  197  A    between atoms: _511  and  _512
REMARK  198  A    between atoms: _511  and  _514
REMARK  199  A    between atoms: _517  and  _519
REMARK  200  A    between atoms: _519  and  _520
REMARK  201  A    between atoms: _519  and  _522
REMARK  202  A    between atoms: _522  and  _523
REMARK  203  A    between atoms: _523  and  _524
REMARK  204  A    between atoms: _524  and  _525
REMARK  205  A    between atoms: _525  and  _526
REMARK  206  A    between atoms: _530  and  _532
REMARK  207  A    between atoms: _532  and  _533
REMARK  208  A    between atoms: _536  and  _538
REMARK  209  A    between atoms: _538  and  _539
REMARK  210  A    between atoms: _538  and  _541
REMARK  211  A    between atoms: _541  and  _542
REMARK  212  A    between atoms: _545  and  _547
REMARK  213  A    between atoms: _547  and  _548
REMARK  214  A    between atoms: _547  and  _550
REMARK  215  A    between atoms: _550  and  _551
REMARK  216  A    between atoms: _554  and  _556
REMARK  217  A    between atoms: _556  and  _557
REMARK  218  A    between atoms: _556  and  _559
REMARK  219  A    between atoms: _559  and  _560
REMARK  220  A    between atoms: _563  and  _565
REMARK  221  A    between atoms: _565  and  _566
REMARK  222  A    between atoms: _565  and  _568
REMARK  223  A    between atoms: _568  and  _569
REMARK  224  A    between atoms: _569  and  _570
REMARK  225  A    between atoms: _573  and  _575
REMARK  226  A    between atoms: _575  and  _576
REMARK  227  A    between atoms: _575  and  _578
REMARK  228  A    between atoms: _578  and  _579
REMARK  229  A    between atoms: _579  and  _580
REMARK  230  A    between atoms: _580  and  _581
REMARK  231  A    between atoms: _581  and  _582
REMARK  232  A    between atoms: _586  and  _588
REMARK  233  A    between atoms: _588  and  _589
REMARK  234  A    between atoms: _588  and  _591
REMARK  235  A    between atoms: _591  and  _592
REMARK                            x       y       z     vdW  Elec       q    Type
REMARK                         _______ _______ _______ _____ _____    ______ ____
ROOT
ATOM      1  CA  THR A   5      10.549  10.218  24.774  0.00  0.00    +0.176 C 
ENDROOT
BRANCH   1   3
ATOM      2  C   THR A   4      12.438  11.092  26.043  0.00  0.00    +0.243 C 
ATOM      3  N   THR A   5      11.122  10.966  25.902  0.00  0.00    -0.295 N 
ATOM      4  H   THR A   5      10.488  11.404  26.601  0.00  0.00    +0.150 HD
ATOM      5  O   THR A   4      13.247  10.473  25.339  0.00  0.00    -0.273 OA
BRANCH   2   6
ATOM      6  CA  THR A   4      12.935  12.020  27.152  0.00  0.00    +0.176 C 
BRANCH   6   9
ATOM      7  C   ALA A   3      14.690  11.728  28.841  0.00  0.00    +0.241 C 
ATOM      8  O   ALA A   3      14.086  12.390  29.698  0.00  0.00    -0.273 OA
ATOM      9  N   THR A   4      14.256  11.570  27.592  0.00  0.00    -0.295 N 
ATOM     10  H   THR A   4      14.881  11.108  26.901  0.00  0.00    +0.150 HD
BRANCH   7  11
ATOM     11  CA  ALA A   3      16.014  11.064  29.172  0.00  0.00    +0.149 C 
ATOM     12  CB  ALA A   3      15.794   9.613  29.534  0.00  0.00    +0.031 C 
BRANCH  11  14
ATOM     13  C   LYS A   2      17.917  12.146  30.248  0.00  0.00    +0.241 C 
ATOM     14  N   ALA A   3      16.645  11.768  30.271  0.00  0.00    -0.297 N 
ATOM     15  H   ALA A   3      16.076  11.986  31.114  0.00  0.00    +0.150 HD
ATOM     16  O   LYS A   2      18.690  11.890  29.322  0.00  0.00    -0.273 OA
BRANCH  13  17
ATOM     17  CA  LYS A   2      18.399  12.900  31.473  0.00  0.00    +0.149 C 
BRANCH  17  20
ATOM     18  C   VAL A   1      20.556  12.909  32.589  0.00  0.00    +0.238 C 
ATOM     19  O   VAL A   1      20.038  12.741  33.704  0.00  0.00    -0.274 OA
ATOM     20  N   LYS A   2      19.844  13.079  31.477  0.00  0.00    -0.297 N 
ATOM     21  H   LYS A   2      20.328  13.344  30.596  0.00  0.00    +0.150 HD
BRANCH  18  22
ATOM     22  CA  VAL A   1      22.074  12.942  32.424  0.00  0.00    +0.145 C 
BRANCH  22  23
ATOM     23  CB  VAL A   1      22.614  11.486  32.413  0.00  0.00    +0.025 C 
ATOM     24  CG2 VAL A   1      24.148  11.447  32.312  0.00  0.00    +0.002 C 
ATOM     25  CG1 VAL A   1      21.999  10.690  31.261  0.00  0.00    +0.002 C 
ENDBRANCH  22  23
BRANCH  22  26
ATOM     26  N   VAL A   1      22.656  13.747  33.489  0.00  0.00    -0.238 NA
ATOM     27  H   VAL A   1      22.343  13.581  34.467  0.00  0.00    +0.142 HD
ENDBRANCH  22  26
ENDBRANCH  18  22
ENDBRANCH  17  20
BRANCH  17  28
ATOM     28  CB  LYS A   2      17.661  14.233  31.661  0.00  0.00    +0.029 C 
BRANCH  28  29
ATOM     29  CG  LYS A   2      17.908  15.306  30.614  0.00  0.00    +0.000 C 
BRANCH  29  30
ATOM     30  CD  LYS A   2      17.825  16.684  31.286  0.00  0.00    -0.024 C 
BRANCH  30  31
ATOM     31  CE  LYS A   2      18.515  17.766  30.509  0.00  0.00    -0.086 C 
BRANCH  31  32
ATOM     32  NZ  LYS A   2      19.780  17.314  29.871  0.00  0.00    +0.380 N 
ATOM     33  HZ1 LYS A   2      20.439  16.985  30.605  0.00  0.00    -0.089 HD
ATOM     34  HZ2 LYS A   2      20.207  18.107  29.350  0.00  0.00    -0.089 HD
ATOM     35  HZ3 LYS A   2      19.576  16.535  29.213  0.00  0.00    -0.089 HD
ENDBRANCH  31  32
ENDBRANCH  30  31
ENDBRANCH  29  30
ENDBRANCH  28  29
ENDBRANCH  17  28
ENDBRANCH  13  17
ENDBRANCH  11  14
ENDBRANCH   7  11
ENDBRANCH   6   9
BRANCH   6  36
ATOM     36  CB  THR A   4      12.945  13.501  26.669  0.00  0.00    +0.137 C 
ATOM     37  CG2 THR A   4      13.758  13.677  25.366  0.00  0.00    +0.034 C 
BRANCH  36  38
ATOM     38  OG1 THR A   4      11.600  13.944  26.446  0.00  0.00    -0.382 OA
ATOM     39  HG1 THR A   4      11.177  13.375  25.755  0.00  0.00    +0.210 HD
ENDBRANCH  36  38
ENDBRANCH   6  36
ENDBRANCH   2   6
ENDBRANCH   1   3
BRANCH   1  40
ATOM     40  C   THR A   5      10.163  11.242  23.723  0.00  0.00    +0.243 C 
ATOM     41  O   THR A   5      10.207  12.444  23.989  0.00  0.00    -0.273 OA
ATOM     42  N   THR A   6       9.790  10.786  22.535  0.00  0.00    -0.295 N 
ATOM     43  H   THR A   6       9.900   9.777  22.308  0.00  0.00    +0.150 HD
BRANCH  42  44
ATOM     44  CA  THR A   6       9.227  11.695  21.548  0.00  0.00    +0.176 C 
BRANCH  44  45
ATOM     45  C   THR A   6       7.745  11.413  21.331  0.00  0.00    +0.243 C 
ATOM     46  N   GLU A   7       7.116  10.867  22.371  0.00  0.00    -0.297 N 
ATOM     47  H   GLU A   7       7.668  10.681  23.233  0.00  0.00    +0.150 HD
ATOM     48  O   THR A   6       7.197  11.682  20.259  0.00  0.00    -0.273 OA
BRANCH  46  49
ATOM     49  CA  GLU A   7       5.697  10.514  22.374  0.00  0.00    +0.149 C 
BRANCH  49  50
ATOM     50  C   GLU A   7       5.222   9.777  21.117  0.00  0.00    +0.241 C 
ATOM     51  N   LYS A   8       5.941   8.708  20.777  0.00  0.00    -0.298 N 
ATOM     52  H   LYS A   8       6.795   8.495  21.331  0.00  0.00    +0.150 HD
ATOM     53  O   GLU A   7       4.239  10.167  20.484  0.00  0.00    -0.273 OA
BRANCH  51  54
ATOM     54  CA  LYS A   8       5.597   7.811  19.663  0.00  0.00    +0.137 C 
BRANCH  54  55
ATOM     55  C   LYS A   8       5.853   8.408  18.269  0.00  0.00    +0.227 C 
ATOM     56  O   LYS A   8       5.514   7.790  17.261  0.00  0.00    -0.286 OA
ENDBRANCH  54  55
BRANCH  54  57
ATOM     57  CB  LYS A   8       4.146   7.300  19.771  0.00  0.00    +0.028 C 
BRANCH  57  58
ATOM     58  CG  LYS A   8       3.817   6.519  21.042  0.00  0.00    -0.000 C 
BRANCH  58  59
ATOM     59  CD  LYS A   8       4.356   5.088  20.988  0.00  0.00    -0.024 C 
BRANCH  59  60
ATOM     60  CE  LYS A   8       3.887   4.276  22.204  0.00  0.00    -0.086 C 
BRANCH  60  61
ATOM     61  NZ  LYS A   8       4.464   2.884  22.225  0.00  0.00    +0.380 N 
ATOM     62  HZ1 LYS A   8       4.116   2.379  23.065  0.00  0.00    -0.089 HD
ATOM     63  HZ2 LYS A   8       5.502   2.941  22.258  0.00  0.00    -0.089 HD
ATOM     64  HZ3 LYS A   8       4.170   2.375  21.367  0.00  0.00    -0.089 HD
ENDBRANCH  60  61
ENDBRANCH  59  60
ENDBRANCH  58  59
ENDBRANCH  57  58
ENDBRANCH  54  57
ENDBRANCH  51  54
ENDBRANCH  49  50
BRANCH  49  65
ATOM     65  CB  GLU A   7       4.831  11.738  22.705  0.00  0.00    +0.041 C 
BRANCH  65  66
ATOM     66  CG  GLU A   7       4.810  12.024  24.213  0.00  0.00    +0.116 C 
BRANCH  66  67
ATOM     67  CD  GLU A   7       3.939  13.211  24.613  0.00  0.00    +0.365 C 
ATOM     68  OE2 GLU A   7       4.128  13.668  25.767  0.00  0.00    -0.246 OA
ATOM     69  OE1 GLU A   7       3.071  13.680  23.808  0.00  0.00    -0.246 OA
ENDBRANCH  66  67
ENDBRANCH  65  66
ENDBRANCH  49  65
ENDBRANCH  46  49
ENDBRANCH  44  45
BRANCH  44  70
ATOM     70  CB  THR A   6       9.993  11.658  20.223  0.00  0.00    +0.137 C 
ATOM     71  CG2 THR A   6      11.407  12.173  20.423  0.00  0.00    +0.034 C 
BRANCH  70  72
ATOM     72  OG1 THR A   6      10.025  10.316  19.729  0.00  0.00    -0.382 OA
ATOM     73  HG1 THR A   6      10.520  10.293  18.872  0.00  0.00    +0.210 HD
ENDBRANCH  70  72
ENDBRANCH  44  70
ENDBRANCH  42  44
ENDBRANCH   1  40
BRANCH   1  74
ATOM     74  CB  THR A   5       9.280   9.406  25.154  0.00  0.00    +0.137 C 
ATOM     75  CG2 THR A   5       9.487   8.584  26.425  0.00  0.00    +0.034 C 
BRANCH  74  76
ATOM     76  OG1 THR A   5       8.174  10.300  25.336  0.00  0.00    -0.382 OA
ATOM     77  HG1 THR A   5       8.385  10.941  26.061  0.00  0.00    +0.210 HD
ENDBRANCH  74  76
ENDBRANCH   1  74
TORSDOF 36
REMARK  Name = ../refined-set-2016/2gzl/2gzl_pocket.pdb
REMARK  235 active torsions:
REMARK  status: ('A' for Active; 'I' for Inactive)
REMARK    1  A    between atoms: _1  and  _3
REMARK    2  A    between atoms: _3  and  _4
REMARK    3  A    between atoms: _3  and  _6
REMARK    4  A    between atoms: _6  and  _7
REMARK    5  A    between atoms: _13  and  _15
REMARK    6  A    between atoms: _24  and  _27
REMARK    7  A    between atoms: _32  and  _33
REMARK    8  A    between atoms: _41  and  _43
REMARK    9  A    between atoms: _43  and  _44
REMARK   10  A    between atoms: _43  and  _46
REMARK   11  A    between atoms: _46  and  _47
REMARK   12  A    between atoms: _50  and  _52
REMARK   13  A    between atoms: _52  and  _53
REMARK   14  A    between atoms: _56  and  _58
REMARK   15  A    between atoms: _58  and  _59
REMARK   16  A    between atoms: _58  and  _61
REMARK   17  A    between atoms: _61  and  _62
REMARK   18  A    between atoms: _67  and  _69
REMARK   19  A    between atoms: _69  and  _70
REMARK   20  A    between atoms: _69  and  _72
REMARK   21  A    between atoms: _72  and  _73
REMARK   22  A    between atoms: _75  and  _77
REMARK   23  A    between atoms: _77  and  _78
REMARK   24  A    between atoms: _77  and  _80
REMARK   25  A    between atoms: _80  and  _81
REMARK   26  A    between atoms: _84  and  _86
REMARK   27  A    between atoms: _86  and  _87
REMARK   28  A    between atoms: _89  and  _91
REMARK   29  A    between atoms: _91  and  _92
REMARK   30  A    between atoms: _91  and  _94
REMARK   31  A    between atoms: _94  and  _95
REMARK   32  A    between atoms: _98  and  _100
REMARK   33  A    between atoms: _100  and  _101
REMARK   34  A    between atoms: _100  and  _103
REMARK   35  A    between atoms: _106  and  _108
REMARK   36  A    between atoms: _108  and  _109
REMARK   37  A    between atoms: _108  and  _111
REMARK   38  A    between atoms: _111  and  _112
REMARK   39  A    between atoms: _113  and  ZN_595
REMARK   40  A    between atoms: _117  and  _119
REMARK   41  A    between atoms: _119  and  _120
REMARK   42  A    between atoms: _123  and  _125
REMARK   43  A    between atoms: _125  and  _126
REMARK   44  A    between atoms: _125  and  _128
REMARK   45  A    between atoms: _128  and  _129
REMARK   46  A    between atoms: _132  and  _134
REMARK   47  A    between atoms: _134  and  _135
REMARK   48  A    between atoms: _134  and  _137
REMARK   49  A    between atoms: _137  and  _138
REMARK   50  A    between atoms: _141  and  _143
REMARK   51  A    between atoms: _143  and  _144
REMARK   52  A    between atoms: _146  and  _148
REMARK   53  A    between atoms: _148  and  _149
REMARK   54  A    between atoms: _148  and  _151
REMARK   55  A    between atoms: _151  and  _152
REMARK   56  A    between atoms: _155  and  _157
REMARK   57  A    between atoms: _157  and  _158
REMARK   58  A    between atoms: _157  and  _160
REMARK   59  A    between atoms: _160  and  _161
REMARK   60  A    between atoms: _164  and  _166
REMARK   61  A    between atoms: _166  and  _167
REMARK   62  A    between atoms: _169  and  _171
REMARK   63  A    between atoms: _171  and  _172
REMARK   64  A    between atoms: _171  and  _174
REMARK   65  A    between atoms: _174  and  _175
REMARK   66  A    between atoms: _175  and  _176
REMARK   67  A    between atoms: _176  and  _177
REMARK   68  A    between atoms: _177  and  _178
REMARK   69  A    between atoms: _182  and  _184
REMARK   70  A    between atoms: _184  and  _185
REMARK   71  A    between atoms: _184  and  _187
REMARK   72  A    between atoms: _187  and  _188
REMARK   73  A    between atoms: _191  and  _193
REMARK   74  A    between atoms: _193  and  _194
REMARK   75  A    between atoms: _193  and  _196
REMARK   76  A    between atoms: _196  and  _197
REMARK   77  A    between atoms: _204  and  _205
REMARK   78  A    between atoms: _210  and  _212
REMARK   79  A    between atoms: _212  and  _213
REMARK   80  A    between atoms: _212  and  _215
REMARK   81  A    between atoms: _215  and  _216
REMARK   82  A    between atoms: _219  and  _221
REMARK   83  A    between atoms: _221  and  _222
REMARK   84  A    between atoms: _221  and  _224
REMARK   85  A    between atoms: _224  and  _225
REMARK   86  A    between atoms: _228  and  _230
REMARK   87  A    between atoms: _230  and  _231
REMARK   88  A    between atoms: _230  and  _233
REMARK   89  A    between atoms: _233  and  _234
REMARK   90  A    between atoms: _238  and  _239
REMARK   91  A    between atoms: _244  and  _246
REMARK   92  A    between atoms: _246  and  _247
REMARK   93  A    between atoms: _250  and  _252
REMARK   94  A    between atoms: _252  and  _253
REMARK   95  A    between atoms: _252  and  _255
REMARK   96  A    between atoms: _255  and  _256
REMARK   97  A    between atoms: _262  and  _264
REMARK   98  A    between atoms: _264  and  _265
REMARK   99  A    between atoms: _267  and  _269
REMARK  100  A    between atoms: _269  and  _270
REMARK  101  A    between atoms: _273  and  _275
REMARK  102  A    between atoms: _275  and  _276
REMARK  103  A    between atoms: _275  and  _278
REMARK  104  A    between atoms: _278  and  _279
REMARK  105  A    between atoms: _282  and  _284
REMARK  106  A    between atoms: _284  and  _285
REMARK  107  A    between atoms: _284  and  _287
REMARK  108  A    between atoms: _287  and  _288
REMARK  109  A    between atoms: _290  and  _292
REMARK  110  A    between atoms: _292  and  _293
REMARK  111  A    between atoms: _292  and  _295
REMARK  112  A    between atoms: _295  and  _296
REMARK  113  A    between atoms: _296  and  _297
REMARK  114  A    between atoms: _297  and  _298
REMARK  115  A    between atoms: _307  and  _309
REMARK  116  A    between atoms: _309  and  _310
REMARK  117  A    between atoms: _309  and  _312
REMARK  118  A    between atoms: _312  and  _313
REMARK  119  A    between atoms: _313  and  _314
REMARK  120  A    between atoms: _317  and  _319
REMARK  121  A    between atoms: _319  and  _320
REMARK  122  A    between atoms: _319  and  _322
REMARK  123  A    between atoms: _322  and  _323
REMARK  124  A    between atoms: _326  and  _328
REMARK  125  A    between atoms: _328  and  _329
REMARK  126  A    between atoms: _328  and  _331
REMARK  127  A    between atoms: _331  and  _332
REMARK  128  A    between atoms: _335  and  _337
REMARK  129  A    between atoms: _337  and  _338
REMARK  130  A    between atoms: _337  and  _340
REMARK  131  A    between atoms: _340  and  _341
REMARK  132  A    between atoms: _341  and  _342
REMARK  133  A    between atoms: _342  and  _343
REMARK  134  A    between atoms: _352  and  _354
REMARK  135  A    between atoms: _354  and  _355
REMARK  136  A    between atoms: _354  and  _357
REMARK  137  A    between atoms: _357  and  _358
REMARK  138  A    between atoms: _358  and  _359
REMARK  139  A    between atoms: _362  and  _364
REMARK  140  A    between atoms: _364  and  _365
REMARK  141  A    between atoms: _368  and  _370
REMARK  142  A    between atoms: _370  and  _371
REMARK  143  A    between atoms: _370  and  _373
REMARK  144  A    between atoms: _373  and  _374
REMARK  145  A    between atoms: _374  and  _375
REMARK  146  A    between atoms: _375  and  _376
REMARK  147  A    between atoms: _385  and  _387
REMARK  148  A    between atoms: _387  and  _388
REMARK  149  A    between atoms: _387  and  _390
REMARK  150  A    between atoms: _390  and  _391
REMARK  151  A    between atoms: _391  and  _392
REMARK  152  A    between atoms: _392  and  _393
REMARK  153  A    between atoms: _402  and  _404
REMARK  154  A    between atoms: _404  and  _405
REMARK  155  A    between atoms: _404  and  _407
REMARK  156  A    between atoms: _407  and  _408
REMARK  157  A    between atoms: _411  and  _413
REMARK  158  A    between atoms: _413  and  _414
REMARK  159  A    between atoms: _413  and  _416
REMARK  160  A    between atoms: _416  and  _417
REMARK  161  A    between atoms: _420  and  _422
REMARK  162  A    between atoms: _422  and  _423
REMARK  163  A    between atoms: _426  and  _428
REMARK  164  A    between atoms: _428  and  _429
REMARK  165  A    between atoms: _428  and  _431
REMARK  166  A    between atoms: _431  and  _432
REMARK  167  A    between atoms: _432  and  _433
REMARK  168  A    between atoms: _438  and  _440
REMARK  169  A    between atoms: _440  and  _441
REMARK  170  A    between atoms: _445  and  _446
REMARK  171  A    between atoms: _451  and  _453
REMARK  172  A    between atoms: _453  and  _454
REMARK  173  A    between atoms: _453  and  _456
REMARK  174  A    between atoms: _456  and  _457
REMARK  175  A    between atoms: _457  and  _458
REMARK  176  A    between atoms: _458  and  _459
REMARK  177  A    between atoms: _459  and  _460
REMARK  178  A    between atoms: _464  and  _466
REMARK  179  A    between atoms: _466  and  _467
REMARK  180  A    between atoms: _466  and  _469
REMARK  181  A    between atoms: _469  and  _470
REMARK  182  A    between atoms: _470  and  _471
REMARK  183  A    between atoms: _473  and  _475
REMARK  184  A    between atoms: _475  and  _476
REMARK  185  A    between atoms: _475  and  _478
REMARK  186  A    between atoms: _478  and  _479
REMARK  187  A    between atoms: _483  and  _484
REMARK  188  A    between atoms: _489  and  _491
REMARK  189  A    between atoms: _491  and  _492
REMARK  190  A    between atoms: _491  and  _494
REMARK  191  A    between atoms: _494  and  _495
REMARK  192  A    between atoms: _500  and  _502
REMARK  193  A    between atoms: _502  and  _503
REMARK  194  A    between atoms: _502  and  _505
REMARK  195  A    between atoms: _505  and  _506
REMARK  196  A    between atoms: _509  and  _511
REMARK  197  A    between atoms: _511  and  _512
REMARK  198  A    between atoms: _511  and  _514
REMARK  199  A    between atoms: _517  and  _519
REMARK  200  A    between atoms: _519  and  _520
REMARK  201  A    between atoms: _519  and  _522
REMARK  202  A    between atoms: _522  and  _523
REMARK  203  A    between atoms: _523  and  _524
REMARK  204  A    between atoms: _524  and  _525
REMARK  205  A    between atoms: _525  and  _526
REMARK  206  A    between atoms: _530  and  _532
REMARK  207  A    between atoms: _532  and  _533
REMARK  208  A    between atoms: _536  and  _538
REMARK  209  A    between atoms: _538  and  _539
REMARK  210  A    between atoms: _538  and  _541
REMARK  211  A    between atoms: _541  and  _542
REMARK  212  A    between atoms: _545  and  _547
REMARK  213  A    between atoms: _547  and  _548
REMARK  214  A    between atoms: _547  and  _550
REMARK  215  A    between atoms: _550  and  _551
REMARK  216  A    between atoms: _554  and  _556
REMARK  217  A    between atoms: _556  and  _557
REMARK  218  A    between atoms: _556  and  _559
REMARK  219  A    between atoms: _559  and  _560
REMARK  220  A    between atoms: _563  and  _565
REMARK  221  A    between atoms: _565  and  _566
REMARK  222  A    between atoms: _565  and  _568
REMARK  223  A    between atoms: _568  and  _569
REMARK  224  A    between atoms: _569  and  _570
REMARK  225  A    between atoms: _573  and  _575
REMARK  226  A    between atoms: _575  and  _576
REMARK  227  A    between atoms: _575  and  _578
REMARK  228  A    between atoms: _578  and  _579
REMARK  229  A    between atoms: _579  and  _580
REMARK  230  A    between atoms: _580  and  _581
REMARK  231  A    between atoms: _581  and  _582
REMARK  232  A    between atoms: _586  and  _588
REMARK  233  A    between atoms: _588  and  _589
REMARK  234  A    between atoms: _588  and  _591
REMARK  235  A    between atoms: _591  and  _592
REMARK                            x       y       z     vdW  Elec       q    Type
REMARK                         _______ _______ _______ _____ _____    ______ ____
ROOT
ATOM      1  CA  ILE A   1      17.933   5.970  19.957  0.00  0.00    +0.133 C 
ENDROOT
BRANCH   1   2
ATOM      2  N   ILE A   1      17.739   5.044  18.845  0.00  0.00    -0.239 NA
ATOM      3  H   ILE A   1      18.582   4.658  18.374  0.00  0.00    +0.142 HD
ENDBRANCH   1   2
BRANCH   1   4
ATOM      4  CB  ILE A   1      18.520   5.263  21.217  0.00  0.00    +0.023 C 
ATOM      5  CG2 ILE A   1      18.761   6.256  22.357  0.00  0.00    +0.002 C 
BRANCH   4   6
ATOM      6  CG1 ILE A   1      17.563   4.173  21.714  0.00  0.00    +0.002 C 
ATOM      7  CD1 ILE A   1      18.028   3.453  22.977  0.00  0.00    +0.000 C 
ENDBRANCH   4   6
ENDBRANCH   1   4
BRANCH   1   8
ATOM      8  C   ILE A   1      18.838   7.129  19.537  0.00  0.00    +0.224 C 
ATOM      9  O   ILE A   1      19.840   6.947  18.833  0.00  0.00    -0.287 OA
ENDBRANCH   1   8
TORSDOF 4
REMARK  Name = ../refined-set-2016/2gzl/2gzl_pocket.pdb
REMARK  235 active torsions:
REMARK  status: ('A' for Active; 'I' for Inactive)
REMARK    1  A    between atoms: _1  and  _3
REMARK    2  A    between atoms: _3  and  _4
REMARK    3  A    between atoms: _3  and  _6
REMARK    4  A    between atoms: _6  and  _7
REMARK    5  A    between atoms: _13  and  _15
REMARK    6  A    between atoms: _24  and  _27
REMARK    7  A    between atoms: _32  and  _33
REMARK    8  A    between atoms: _41  and  _43
REMARK    9  A    between atoms: _43  and  _44
REMARK   10  A    between atoms: _43  and  _46
REMARK   11  A    between atoms: _46  and  _47
REMARK   12  A    between atoms: _50  and  _52
REMARK   13  A    between atoms: _52  and  _53
REMARK   14  A    between atoms: _56  and  _58
REMARK   15  A    between atoms: _58  and  _59
REMARK   16  A    between atoms: _58  and  _61
REMARK   17  A    between atoms: _61  and  _62
REMARK   18  A    between atoms: _67  and  _69
REMARK   19  A    between atoms: _69  and  _70
REMARK   20  A    between atoms: _69  and  _72
REMARK   21  A    between atoms: _72  and  _73
REMARK   22  A    between atoms: _75  and  _77
REMARK   23  A    between atoms: _77  and  _78
REMARK   24  A    between atoms: _77  and  _80
REMARK   25  A    between atoms: _80  and  _81
REMARK   26  A    between atoms: _84  and  _86
REMARK   27  A    between atoms: _86  and  _87
REMARK   28  A    between atoms: _89  and  _91
REMARK   29  A    between atoms: _91  and  _92
REMARK   30  A    between atoms: _91  and  _94
REMARK   31  A    between atoms: _94  and  _95
REMARK   32  A    between atoms: _98  and  _100
REMARK   33  A    between atoms: _100  and  _101
REMARK   34  A    between atoms: _100  and  _103
REMARK   35  A    between atoms: _106  and  _108
REMARK   36  A    between atoms: _108  and  _109
REMARK   37  A    between atoms: _108  and  _111
REMARK   38  A    between atoms: _111  and  _112
REMARK   39  A    between atoms: _113  and  ZN_595
REMARK   40  A    between atoms: _117  and  _119
REMARK   41  A    between atoms: _119  and  _120
REMARK   42  A    between atoms: _123  and  _125
REMARK   43  A    between atoms: _125  and  _126
REMARK   44  A    between atoms: _125  and  _128
REMARK   45  A    between atoms: _128  and  _129
REMARK   46  A    between atoms: _132  and  _134
REMARK   47  A    between atoms: _134  and  _135
REMARK   48  A    between atoms: _134  and  _137
REMARK   49  A    between atoms: _137  and  _138
REMARK   50  A    between atoms: _141  and  _143
REMARK   51  A    between atoms: _143  and  _144
REMARK   52  A    between atoms: _146  and  _148
REMARK   53  A    between atoms: _148  and  _149
REMARK   54  A    between atoms: _148  and  _151
REMARK   55  A    between atoms: _151  and  _152
REMARK   56  A    between atoms: _155  and  _157
REMARK   57  A    between atoms: _157  and  _158
REMARK   58  A    between atoms: _157  and  _160
REMARK   59  A    between atoms: _160  and  _161
REMARK   60  A    between atoms: _164  and  _166
REMARK   61  A    between atoms: _166  and  _167
REMARK   62  A    between atoms: _169  and  _171
REMARK   63  A    between atoms: _171  and  _172
REMARK   64  A    between atoms: _171  and  _174
REMARK   65  A    between atoms: _174  and  _175
REMARK   66  A    between atoms: _175  and  _176
REMARK   67  A    between atoms: _176  and  _177
REMARK   68  A    between atoms: _177  and  _178
REMARK   69  A    between atoms: _182  and  _184
REMARK   70  A    between atoms: _184  and  _185
REMARK   71  A    between atoms: _184  and  _187
REMARK   72  A    between atoms: _187  and  _188
REMARK   73  A    between atoms: _191  and  _193
REMARK   74  A    between atoms: _193  and  _194
REMARK   75  A    between atoms: _193  and  _196
REMARK   76  A    between atoms: _196  and  _197
REMARK   77  A    between atoms: _204  and  _205
REMARK   78  A    between atoms: _210  and  _212
REMARK   79  A    between atoms: _212  and  _213
REMARK   80  A    between atoms: _212  and  _215
REMARK   81  A    between atoms: _215  and  _216
REMARK   82  A    between atoms: _219  and  _221
REMARK   83  A    between atoms: _221  and  _222
REMARK   84  A    between atoms: _221  and  _224
REMARK   85  A    between atoms: _224  and  _225
REMARK   86  A    between atoms: _228  and  _230
REMARK   87  A    between atoms: _230  and  _231
REMARK   88  A    between atoms: _230  and  _233
REMARK   89  A    between atoms: _233  and  _234
REMARK   90  A    between atoms: _238  and  _239
REMARK   91  A    between atoms: _244  and  _246
REMARK   92  A    between atoms: _246  and  _247
REMARK   93  A    between atoms: _250  and  _252
REMARK   94  A    between atoms: _252  and  _253
REMARK   95  A    between atoms: _252  and  _255
REMARK   96  A    between atoms: _255  and  _256
REMARK   97  A    between atoms: _262  and  _264
REMARK   98  A    between atoms: _264  and  _265
REMARK   99  A    between atoms: _267  and  _269
REMARK  100  A    between atoms: _269  and  _270
REMARK  101  A    between atoms: _273  and  _275
REMARK  102  A    between atoms: _275  and  _276
REMARK  103  A    between atoms: _275  and  _278
REMARK  104  A    between atoms: _278  and  _279
REMARK  105  A    between atoms: _282  and  _284
REMARK  106  A    between atoms: _284  and  _285
REMARK  107  A    between atoms: _284  and  _287
REMARK  108  A    between atoms: _287  and  _288
REMARK  109  A    between atoms: _290  and  _292
REMARK  110  A    between atoms: _292  and  _293
REMARK  111  A    between atoms: _292  and  _295
REMARK  112  A    between atoms: _295  and  _296
REMARK  113  A    between atoms: _296  and  _297
REMARK  114  A    between atoms: _297  and  _298
REMARK  115  A    between atoms: _307  and  _309
REMARK  116  A    between atoms: _309  and  _310
REMARK  117  A    between atoms: _309  and  _312
REMARK  118  A    between atoms: _312  and  _313
REMARK  119  A    between atoms: _313  and  _314
REMARK  120  A    between atoms: _317  and  _319
REMARK  121  A    between atoms: _319  and  _320
REMARK  122  A    between atoms: _319  and  _322
REMARK  123  A    between atoms: _322  and  _323
REMARK  124  A    between atoms: _326  and  _328
REMARK  125  A    between atoms: _328  and  _329
REMARK  126  A    between atoms: _328  and  _331
REMARK  127  A    between atoms: _331  and  _332
REMARK  128  A    between atoms: _335  and  _337
REMARK  129  A    between atoms: _337  and  _338
REMARK  130  A    between atoms: _337  and  _340
REMARK  131  A    between atoms: _340  and  _341
REMARK  132  A    between atoms: _341  and  _342
REMARK  133  A    between atoms: _342  and  _343
REMARK  134  A    between atoms: _352  and  _354
REMARK  135  A    between atoms: _354  and  _355
REMARK  136  A    between atoms: _354  and  _357
REMARK  137  A    between atoms: _357  and  _358
REMARK  138  A    between atoms: _358  and  _359
REMARK  139  A    between atoms: _362  and  _364
REMARK  140  A    between atoms: _364  and  _365
REMARK  141  A    between atoms: _368  and  _370
REMARK  142  A    between atoms: _370  and  _371
REMARK  143  A    between atoms: _370  and  _373
REMARK  144  A    between atoms: _373  and  _374
REMARK  145  A    between atoms: _374  and  _375
REMARK  146  A    between atoms: _375  and  _376
REMARK  147  A    between atoms: _385  and  _387
REMARK  148  A    between atoms: _387  and  _388
REMARK  149  A    between atoms: _387  and  _390
REMARK  150  A    between atoms: _390  and  _391
REMARK  151  A    between atoms: _391  and  _392
REMARK  152  A    between atoms: _392  and  _393
REMARK  153  A    between atoms: _402  and  _404
REMARK  154  A    between atoms: _404  and  _405
REMARK  155  A    between atoms: _404  and  _407
REMARK  156  A    between atoms: _407  and  _408
REMARK  157  A    between atoms: _411  and  _413
REMARK  158  A    between atoms: _413  and  _414
REMARK  159  A    between atoms: _413  and  _416
REMARK  160  A    between atoms: _416  and  _417
REMARK  161  A    between atoms: _420  and  _422
REMARK  162  A    between atoms: _422  and  _423
REMARK  163  A    between atoms: _426  and  _428
REMARK  164  A    between atoms: _428  and  _429
REMARK  165  A    between atoms: _428  and  _431
REMARK  166  A    between atoms: _431  and  _432
REMARK  167  A    between atoms: _432  and  _433
REMARK  168  A    between atoms: _438  and  _440
REMARK  169  A    between atoms: _440  and  _441
REMARK  170  A    between atoms: _445  and  _446
REMARK  171  A    between atoms: _451  and  _453
REMARK  172  A    between atoms: _453  and  _454
REMARK  173  A    between atoms: _453  and  _456
REMARK  174  A    between atoms: _456  and  _457
REMARK  175  A    between atoms: _457  and  _458
REMARK  176  A    between atoms: _458  and  _459
REMARK  177  A    between atoms: _459  and  _460
REMARK  178  A    between atoms: _464  and  _466
REMARK  179  A    between atoms: _466  and  _467
REMARK  180  A    between atoms: _466  and  _469
REMARK  181  A    between atoms: _469  and  _470
REMARK  182  A    between atoms: _470  and  _471
REMARK  183  A    between atoms: _473  and  _475
REMARK  184  A    between atoms: _475  and  _476
REMARK  185  A    between atoms: _475  and  _478
REMARK  186  A    between atoms: _478  and  _479
REMARK  187  A    between atoms: _483  and  _484
REMARK  188  A    between atoms: _489  and  _491
REMARK  189  A    between atoms: _491  and  _492
REMARK  190  A    between atoms: _491  and  _494
REMARK  191  A    between atoms: _494  and  _495
REMARK  192  A    between atoms: _500  and  _502
REMARK  193  A    between atoms: _502  and  _503
REMARK  194  A    between atoms: _502  and  _505
REMARK  195  A    between atoms: _505  and  _506
REMARK  196  A    between atoms: _509  and  _511
REMARK  197  A    between atoms: _511  and  _512
REMARK  198  A    between atoms: _511  and  _514
REMARK  199  A    between atoms: _517  and  _519
REMARK  200  A    between atoms: _519  and  _520
REMARK  201  A    between atoms: _519  and  _522
REMARK  202  A    between atoms: _522  and  _523
REMARK  203  A    between atoms: _523  and  _524
REMARK  204  A    between atoms: _524  and  _525
REMARK  205  A    between atoms: _525  and  _526
REMARK  206  A    between atoms: _530  and  _532
REMARK  207  A    between atoms: _532  and  _533
REMARK  208  A    between atoms: _536  and  _538
REMARK  209  A    between atoms: _538  and  _539
REMARK  210  A    between atoms: _538  and  _541
REMARK  211  A    between atoms: _541  and  _542
REMARK  212  A    between atoms: _545  and  _547
REMARK  213  A    between atoms: _547  and  _548
REMARK  214  A    between atoms: _547  and  _550
REMARK  215  A    between atoms: _550  and  _551
REMARK  216  A    between atoms: _554  and  _556
REMARK  217  A    between atoms: _556  and  _557
REMARK  218  A    between atoms: _556  and  _559
REMARK  219  A    between atoms: _559  and  _560
REMARK  220  A    between atoms: _563  and  _565
REMARK  221  A    between atoms: _565  and  _566
REMARK  222  A    between atoms: _565  and  _568
REMARK  223  A    between atoms: _568  and  _569
REMARK  224  A    between atoms: _569  and  _570
REMARK  225  A    between atoms: _573  and  _575
REMARK  226  A    between atoms: _575  and  _576
REMARK  227  A    between atoms: _575  and  _578
REMARK  228  A    between atoms: _578  and  _579
REMARK  229  A    between atoms: _579  and  _580
REMARK  230  A    between atoms: _580  and  _581
REMARK  231  A    between atoms: _581  and  _582
REMARK  232  A    between atoms: _586  and  _588
REMARK  233  A    between atoms: _588  and  _589
REMARK  234  A    between atoms: _588  and  _591
REMARK  235  A    between atoms: _591  and  _592
REMARK                            x       y       z     vdW  Elec       q    Type
REMARK                         _______ _______ _______ _____ _____    ______ ____
ROOT
ATOM      1  O   HOH     1      15.013  16.922  27.905  0.00  0.00    +0.000 OA
ENDROOT
TORSDOF 0
REMARK  Name = ../refined-set-2016/2gzl/2gzl_pocket.pdb
REMARK  235 active torsions:
REMARK  status: ('A' for Active; 'I' for Inactive)
REMARK    1  A    between atoms: _1  and  _3
REMARK    2  A    between atoms: _3  and  _4
REMARK    3  A    between atoms: _3  and  _6
REMARK    4  A    between atoms: _6  and  _7
REMARK    5  A    between atoms: _13  and  _15
REMARK    6  A    between atoms: _24  and  _27
REMARK    7  A    between atoms: _32  and  _33
REMARK    8  A    between atoms: _41  and  _43
REMARK    9  A    between atoms: _43  and  _44
REMARK   10  A    between atoms: _43  and  _46
REMARK   11  A    between atoms: _46  and  _47
REMARK   12  A    between atoms: _50  and  _52
REMARK   13  A    between atoms: _52  and  _53
REMARK   14  A    between atoms: _56  and  _58
REMARK   15  A    between atoms: _58  and  _59
REMARK   16  A    between atoms: _58  and  _61
REMARK   17  A    between atoms: _61  and  _62
REMARK   18  A    between atoms: _67  and  _69
REMARK   19  A    between atoms: _69  and  _70
REMARK   20  A    between atoms: _69  and  _72
REMARK   21  A    between atoms: _72  and  _73
REMARK   22  A    between atoms: _75  and  _77
REMARK   23  A    between atoms: _77  and  _78
REMARK   24  A    between atoms: _77  and  _80
REMARK   25  A    between atoms: _80  and  _81
REMARK   26  A    between atoms: _84  and  _86
REMARK   27  A    between atoms: _86  and  _87
REMARK   28  A    between atoms: _89  and  _91
REMARK   29  A    between atoms: _91  and  _92
REMARK   30  A    between atoms: _91  and  _94
REMARK   31  A    between atoms: _94  and  _95
REMARK   32  A    between atoms: _98  and  _100
REMARK   33  A    between atoms: _100  and  _101
REMARK   34  A    between atoms: _100  and  _103
REMARK   35  A    between atoms: _106  and  _108
REMARK   36  A    between atoms: _108  and  _109
REMARK   37  A    between atoms: _108  and  _111
REMARK   38  A    between atoms: _111  and  _112
REMARK   39  A    between atoms: _113  and  ZN_595
REMARK   40  A    between atoms: _117  and  _119
REMARK   41  A    between atoms: _119  and  _120
REMARK   42  A    between atoms: _123  and  _125
REMARK   43  A    between atoms: _125  and  _126
REMARK   44  A    between atoms: _125  and  _128
REMARK   45  A    between atoms: _128  and  _129
REMARK   46  A    between atoms: _132  and  _134
REMARK   47  A    between atoms: _134  and  _135
REMARK   48  A    between atoms: _134  and  _137
REMARK   49  A    between atoms: _137  and  _138
REMARK   50  A    between atoms: _141  and  _143
REMARK   51  A    between atoms: _143  and  _144
REMARK   52  A    between atoms: _146  and  _148
REMARK   53  A    between atoms: _148  and  _149
REMARK   54  A    between atoms: _148  and  _151
REMARK   55  A    between atoms: _151  and  _152
REMARK   56  A    between atoms: _155  and  _157
REMARK   57  A    between atoms: _157  and  _158
REMARK   58  A    between atoms: _157  and  _160
REMARK   59  A    between atoms: _160  and  _161
REMARK   60  A    between atoms: _164  and  _166
REMARK   61  A    between atoms: _166  and  _167
REMARK   62  A    between atoms: _169  and  _171
REMARK   63  A    between atoms: _171  and  _172
REMARK   64  A    between atoms: _171  and  _174
REMARK   65  A    between atoms: _174  and  _175
REMARK   66  A    between atoms: _175  and  _176
REMARK   67  A    between atoms: _176  and  _177
REMARK   68  A    between atoms: _177  and  _178
REMARK   69  A    between atoms: _182  and  _184
REMARK   70  A    between atoms: _184  and  _185
REMARK   71  A    between atoms: _184  and  _187
REMARK   72  A    between atoms: _187  and  _188
REMARK   73  A    between atoms: _191  and  _193
REMARK   74  A    between atoms: _193  and  _194
REMARK   75  A    between atoms: _193  and  _196
REMARK   76  A    between atoms: _196  and  _197
REMARK   77  A    between atoms: _204  and  _205
REMARK   78  A    between atoms: _210  and  _212
REMARK   79  A    between atoms: _212  and  _213
REMARK   80  A    between atoms: _212  and  _215
REMARK   81  A    between atoms: _215  and  _216
REMARK   82  A    between atoms: _219  and  _221
REMARK   83  A    between atoms: _221  and  _222
REMARK   84  A    between atoms: _221  and  _224
REMARK   85  A    between atoms: _224  and  _225
REMARK   86  A    between atoms: _228  and  _230
REMARK   87  A    between atoms: _230  and  _231
REMARK   88  A    between atoms: _230  and  _233
REMARK   89  A    between atoms: _233  and  _234
REMARK   90  A    between atoms: _238  and  _239
REMARK   91  A    between atoms: _244  and  _246
REMARK   92  A    between atoms: _246  and  _247
REMARK   93  A    between atoms: _250  and  _252
REMARK   94  A    between atoms: _252  and  _253
REMARK   95  A    between atoms: _252  and  _255
REMARK   96  A    between atoms: _255  and  _256
REMARK   97  A    between atoms: _262  and  _264
REMARK   98  A    between atoms: _264  and  _265
REMARK   99  A    between atoms: _267  and  _269
REMARK  100  A    between atoms: _269  and  _270
REMARK  101  A    between atoms: _273  and  _275
REMARK  102  A    between atoms: _275  and  _276
REMARK  103  A    between atoms: _275  and  _278
REMARK  104  A    between atoms: _278  and  _279
REMARK  105  A    between atoms: _282  and  _284
REMARK  106  A    between atoms: _284  and  _285
REMARK  107  A    between atoms: _284  and  _287
REMARK  108  A    between atoms: _287  and  _288
REMARK  109  A    between atoms: _290  and  _292
REMARK  110  A    between atoms: _292  and  _293
REMARK  111  A    between atoms: _292  and  _295
REMARK  112  A    between atoms: _295  and  _296
REMARK  113  A    between atoms: _296  and  _297
REMARK  114  A    between atoms: _297  and  _298
REMARK  115  A    between atoms: _307  and  _309
REMARK  116  A    between atoms: _309  and  _310
REMARK  117  A    between atoms: _309  and  _312
REMARK  118  A    between atoms: _312  and  _313
REMARK  119  A    between atoms: _313  and  _314
REMARK  120  A    between atoms: _317  and  _319
REMARK  121  A    between atoms: _319  and  _320
REMARK  122  A    between atoms: _319  and  _322
REMARK  123  A    between atoms: _322  and  _323
REMARK  124  A    between atoms: _326  and  _328
REMARK  125  A    between atoms: _328  and  _329
REMARK  126  A    between atoms: _328  and  _331
REMARK  127  A    between atoms: _331  and  _332
REMARK  128  A    between atoms: _335  and  _337
REMARK  129  A    between atoms: _337  and  _338
REMARK  130  A    between atoms: _337  and  _340
REMARK  131  A    between atoms: _340  and  _341
REMARK  132  A    between atoms: _341  and  _342
REMARK  133  A    between atoms: _342  and  _343
REMARK  134  A    between atoms: _352  and  _354
REMARK  135  A    between atoms: _354  and  _355
REMARK  136  A    between atoms: _354  and  _357
REMARK  137  A    between atoms: _357  and  _358
REMARK  138  A    between atoms: _358  and  _359
REMARK  139  A    between atoms: _362  and  _364
REMARK  140  A    between atoms: _364  and  _365
REMARK  141  A    between atoms: _368  and  _370
REMARK  142  A    between atoms: _370  and  _371
REMARK  143  A    between atoms: _370  and  _373
REMARK  144  A    between atoms: _373  and  _374
REMARK  145  A    between atoms: _374  and  _375
REMARK  146  A    between atoms: _375  and  _376
REMARK  147  A    between atoms: _385  and  _387
REMARK  148  A    between atoms: _387  and  _388
REMARK  149  A    between atoms: _387  and  _390
REMARK  150  A    between atoms: _390  and  _391
REMARK  151  A    between atoms: _391  and  _392
REMARK  152  A    between atoms: _392  and  _393
REMARK  153  A    between atoms: _402  and  _404
REMARK  154  A    between atoms: _404  and  _405
REMARK  155  A    between atoms: _404  and  _407
REMARK  156  A    between atoms: _407  and  _408
REMARK  157  A    between atoms: _411  and  _413
REMARK  158  A    between atoms: _413  and  _414
REMARK  159  A    between atoms: _413  and  _416
REMARK  160  A    between atoms: _416  and  _417
REMARK  161  A    between atoms: _420  and  _422
REMARK  162  A    between atoms: _422  and  _423
REMARK  163  A    between atoms: _426  and  _428
REMARK  164  A    between atoms: _428  and  _429
REMARK  165  A    between atoms: _428  and  _431
REMARK  166  A    between atoms: _431  and  _432
REMARK  167  A    between atoms: _432  and  _433
REMARK  168  A    between atoms: _438  and  _440
REMARK  169  A    between atoms: _440  and  _441
REMARK  170  A    between atoms: _445  and  _446
REMARK  171  A    between atoms: _451  and  _453
REMARK  172  A    between atoms: _453  and  _454
REMARK  173  A    between atoms: _453  and  _456
REMARK  174  A    between atoms: _456  and  _457
REMARK  175  A    between atoms: _457  and  _458
REMARK  176  A    between atoms: _458  and  _459
REMARK  177  A    between atoms: _459  and  _460
REMARK  178  A    between atoms: _464  and  _466
REMARK  179  A    between atoms: _466  and  _467
REMARK  180  A    between atoms: _466  and  _469
REMARK  181  A    between atoms: _469  and  _470
REMARK  182  A    between atoms: _470  and  _471
REMARK  183  A    between atoms: _473  and  _475
REMARK  184  A    between atoms: _475  and  _476
REMARK  185  A    between atoms: _475  and  _478
REMARK  186  A    between atoms: _478  and  _479
REMARK  187  A    between atoms: _483  and  _484
REMARK  188  A    between atoms: _489  and  _491
REMARK  189  A    between atoms: _491  and  _492
REMARK  190  A    between atoms: _491  and  _494
REMARK  191  A    between atoms: _494  and  _495
REMARK  192  A    between atoms: _500  and  _502
REMARK  193  A    between atoms: _502  and  _503
REMARK  194  A    between atoms: _502  and  _505
REMARK  195  A    between atoms: _505  and  _506
REMARK  196  A    between atoms: _509  and  _511
REMARK  197  A    between atoms: _511  and  _512
REMARK  198  A    between atoms: _511  and  _514
REMARK  199  A    between atoms: _517  and  _519
REMARK  200  A    between atoms: _519  and  _520
REMARK  201  A    between atoms: _519  and  _522
REMARK  202  A    between atoms: _522  and  _523
REMARK  203  A    between atoms: _523  and  _524
REMARK  204  A    between atoms: _524  and  _525
REMARK  205  A    between atoms: _525  and  _526
REMARK  206  A    between atoms: _530  and  _532
REMARK  207  A    between atoms: _532  and  _533
REMARK  208  A    between atoms: _536  and  _538
REMARK  209  A    between atoms: _538  and  _539
REMARK  210  A    between atoms: _538  and  _541
REMARK  211  A    between atoms: _541  and  _542
REMARK  212  A    between atoms: _545  and  _547
REMARK  213  A    between atoms: _547  and  _548
REMARK  214  A    between atoms: _547  and  _550
REMARK  215  A    between atoms: _550  and  _551
REMARK  216  A    between atoms: _554  and  _556
REMARK  217  A    between atoms: _556  and  _557
REMARK  218  A    between atoms: _556  and  _559
REMARK  219  A    between atoms: _559  and  _560
REMARK  220  A    between atoms: _563  and  _565
REMARK  221  A    between atoms: _565  and  _566
REMARK  222  A    between atoms: _565  and  _568
REMARK  223  A    between atoms: _568  and  _569
REMARK  224  A    between atoms: _569  and  _570
REMARK  225  A    between atoms: _573  and  _575
REMARK  226  A    between atoms: _575  and  _576
REMARK  227  A    between atoms: _575  and  _578
REMARK  228  A    between atoms: _578  and  _579
REMARK  229  A    between atoms: _579  and  _580
REMARK  230  A    between atoms: _580  and  _581
REMARK  231  A    between atoms: _581  and  _582
REMARK  232  A    between atoms: _586  and  _588
REMARK  233  A    between atoms: _588  and  _589
REMARK  234  A    between atoms: _588  and  _591
REMARK  235  A    between atoms: _591  and  _592
REMARK                            x       y       z     vdW  Elec       q    Type
REMARK                         _______ _______ _______ _____ _____    ______ ____
ROOT
ATOM      1  O   HOH     1      12.740  14.888  30.743  0.00  0.00    +0.000 OA
ENDROOT
TORSDOF 0
REMARK  Name = ../refined-set-2016/2gzl/2gzl_pocket.pdb
REMARK  235 active torsions:
REMARK  status: ('A' for Active; 'I' for Inactive)
REMARK    1  A    between atoms: _1  and  _3
REMARK    2  A    between atoms: _3  and  _4
REMARK    3  A    between atoms: _3  and  _6
REMARK    4  A    between atoms: _6  and  _7
REMARK    5  A    between atoms: _13  and  _15
REMARK    6  A    between atoms: _24  and  _27
REMARK    7  A    between atoms: _32  and  _33
REMARK    8  A    between atoms: _41  and  _43
REMARK    9  A    between atoms: _43  and  _44
REMARK   10  A    between atoms: _43  and  _46
REMARK   11  A    between atoms: _46  and  _47
REMARK   12  A    between atoms: _50  and  _52
REMARK   13  A    between atoms: _52  and  _53
REMARK   14  A    between atoms: _56  and  _58
REMARK   15  A    between atoms: _58  and  _59
REMARK   16  A    between atoms: _58  and  _61
REMARK   17  A    between atoms: _61  and  _62
REMARK   18  A    between atoms: _67  and  _69
REMARK   19  A    between atoms: _69  and  _70
REMARK   20  A    between atoms: _69  and  _72
REMARK   21  A    between atoms: _72  and  _73
REMARK   22  A    between atoms: _75  and  _77
REMARK   23  A    between atoms: _77  and  _78
REMARK   24  A    between atoms: _77  and  _80
REMARK   25  A    between atoms: _80  and  _81
REMARK   26  A    between atoms: _84  and  _86
REMARK   27  A    between atoms: _86  and  _87
REMARK   28  A    between atoms: _89  and  _91
REMARK   29  A    between atoms: _91  and  _92
REMARK   30  A    between atoms: _91  and  _94
REMARK   31  A    between atoms: _94  and  _95
REMARK   32  A    between atoms: _98  and  _100
REMARK   33  A    between atoms: _100  and  _101
REMARK   34  A    between atoms: _100  and  _103
REMARK   35  A    between atoms: _106  and  _108
REMARK   36  A    between atoms: _108  and  _109
REMARK   37  A    between atoms: _108  and  _111
REMARK   38  A    between atoms: _111  and  _112
REMARK   39  A    between atoms: _113  and  ZN_595
REMARK   40  A    between atoms: _117  and  _119
REMARK   41  A    between atoms: _119  and  _120
REMARK   42  A    between atoms: _123  and  _125
REMARK   43  A    between atoms: _125  and  _126
REMARK   44  A    between atoms: _125  and  _128
REMARK   45  A    between atoms: _128  and  _129
REMARK   46  A    between atoms: _132  and  _134
REMARK   47  A    between atoms: _134  and  _135
REMARK   48  A    between atoms: _134  and  _137
REMARK   49  A    between atoms: _137  and  _138
REMARK   50  A    between atoms: _141  and  _143
REMARK   51  A    between atoms: _143  and  _144
REMARK   52  A    between atoms: _146  and  _148
REMARK   53  A    between atoms: _148  and  _149
REMARK   54  A    between atoms: _148  and  _151
REMARK   55  A    between atoms: _151  and  _152
REMARK   56  A    between atoms: _155  and  _157
REMARK   57  A    between atoms: _157  and  _158
REMARK   58  A    between atoms: _157  and  _160
REMARK   59  A    between atoms: _160  and  _161
REMARK   60  A    between atoms: _164  and  _166
REMARK   61  A    between atoms: _166  and  _167
REMARK   62  A    between atoms: _169  and  _171
REMARK   63  A    between atoms: _171  and  _172
REMARK   64  A    between atoms: _171  and  _174
REMARK   65  A    between atoms: _174  and  _175
REMARK   66  A    between atoms: _175  and  _176
REMARK   67  A    between atoms: _176  and  _177
REMARK   68  A    between atoms: _177  and  _178
REMARK   69  A    between atoms: _182  and  _184
REMARK   70  A    between atoms: _184  and  _185
REMARK   71  A    between atoms: _184  and  _187
REMARK   72  A    between atoms: _187  and  _188
REMARK   73  A    between atoms: _191  and  _193
REMARK   74  A    between atoms: _193  and  _194
REMARK   75  A    between atoms: _193  and  _196
REMARK   76  A    between atoms: _196  and  _197
REMARK   77  A    between atoms: _204  and  _205
REMARK   78  A    between atoms: _210  and  _212
REMARK   79  A    between atoms: _212  and  _213
REMARK   80  A    between atoms: _212  and  _215
REMARK   81  A    between atoms: _215  and  _216
REMARK   82  A    between atoms: _219  and  _221
REMARK   83  A    between atoms: _221  and  _222
REMARK   84  A    between atoms: _221  and  _224
REMARK   85  A    between atoms: _224  and  _225
REMARK   86  A    between atoms: _228  and  _230
REMARK   87  A    between atoms: _230  and  _231
REMARK   88  A    between atoms: _230  and  _233
REMARK   89  A    between atoms: _233  and  _234
REMARK   90  A    between atoms: _238  and  _239
REMARK   91  A    between atoms: _244  and  _246
REMARK   92  A    between atoms: _246  and  _247
REMARK   93  A    between atoms: _250  and  _252
REMARK   94  A    between atoms: _252  and  _253
REMARK   95  A    between atoms: _252  and  _255
REMARK   96  A    between atoms: _255  and  _256
REMARK   97  A    between atoms: _262  and  _264
REMARK   98  A    between atoms: _264  and  _265
REMARK   99  A    between atoms: _267  and  _269
REMARK  100  A    between atoms: _269  and  _270
REMARK  101  A    between atoms: _273  and  _275
REMARK  102  A    between atoms: _275  and  _276
REMARK  103  A    between atoms: _275  and  _278
REMARK  104  A    between atoms: _278  and  _279
REMARK  105  A    between atoms: _282  and  _284
REMARK  106  A    between atoms: _284  and  _285
REMARK  107  A    between atoms: _284  and  _287
REMARK  108  A    between atoms: _287  and  _288
REMARK  109  A    between atoms: _290  and  _292
REMARK  110  A    between atoms: _292  and  _293
REMARK  111  A    between atoms: _292  and  _295
REMARK  112  A    between atoms: _295  and  _296
REMARK  113  A    between atoms: _296  and  _297
REMARK  114  A    between atoms: _297  and  _298
REMARK  115  A    between atoms: _307  and  _309
REMARK  116  A    between atoms: _309  and  _310
REMARK  117  A    between atoms: _309  and  _312
REMARK  118  A    between atoms: _312  and  _313
REMARK  119  A    between atoms: _313  and  _314
REMARK  120  A    between atoms: _317  and  _319
REMARK  121  A    between atoms: _319  and  _320
REMARK  122  A    between atoms: _319  and  _322
REMARK  123  A    between atoms: _322  and  _323
REMARK  124  A    between atoms: _326  and  _328
REMARK  125  A    between atoms: _328  and  _329
REMARK  126  A    between atoms: _328  and  _331
REMARK  127  A    between atoms: _331  and  _332
REMARK  128  A    between atoms: _335  and  _337
REMARK  129  A    between atoms: _337  and  _338
REMARK  130  A    between atoms: _337  and  _340
REMARK  131  A    between atoms: _340  and  _341
REMARK  132  A    between atoms: _341  and  _342
REMARK  133  A    between atoms: _342  and  _343
REMARK  134  A    between atoms: _352  and  _354
REMARK  135  A    between atoms: _354  and  _355
REMARK  136  A    between atoms: _354  and  _357
REMARK  137  A    between atoms: _357  and  _358
REMARK  138  A    between atoms: _358  and  _359
REMARK  139  A    between atoms: _362  and  _364
REMARK  140  A    between atoms: _364  and  _365
REMARK  141  A    between atoms: _368  and  _370
REMARK  142  A    between atoms: _370  and  _371
REMARK  143  A    between atoms: _370  and  _373
REMARK  144  A    between atoms: _373  and  _374
REMARK  145  A    between atoms: _374  and  _375
REMARK  146  A    between atoms: _375  and  _376
REMARK  147  A    between atoms: _385  and  _387
REMARK  148  A    between atoms: _387  and  _388
REMARK  149  A    between atoms: _387  and  _390
REMARK  150  A    between atoms: _390  and  _391
REMARK  151  A    between atoms: _391  and  _392
REMARK  152  A    between atoms: _392  and  _393
REMARK  153  A    between atoms: _402  and  _404
REMARK  154  A    between atoms: _404  and  _405
REMARK  155  A    between atoms: _404  and  _407
REMARK  156  A    between atoms: _407  and  _408
REMARK  157  A    between atoms: _411  and  _413
REMARK  158  A    between atoms: _413  and  _414
REMARK  159  A    between atoms: _413  and  _416
REMARK  160  A    between atoms: _416  and  _417
REMARK  161  A    between atoms: _420  and  _422
REMARK  162  A    between atoms: _422  and  _423
REMARK  163  A    between atoms: _426  and  _428
REMARK  164  A    between atoms: _428  and  _429
REMARK  165  A    between atoms: _428  and  _431
REMARK  166  A    between atoms: _431  and  _432
REMARK  167  A    between atoms: _432  and  _433
REMARK  168  A    between atoms: _438  and  _440
REMARK  169  A    between atoms: _440  and  _441
REMARK  170  A    between atoms: _445  and  _446
REMARK  171  A    between atoms: _451  and  _453
REMARK  172  A    between atoms: _453  and  _454
REMARK  173  A    between atoms: _453  and  _456
REMARK  174  A    between atoms: _456  and  _457
REMARK  175  A    between atoms: _457  and  _458
REMARK  176  A    between atoms: _458  and  _459
REMARK  177  A    between atoms: _459  and  _460
REMARK  178  A    between atoms: _464  and  _466
REMARK  179  A    between atoms: _466  and  _467
REMARK  180  A    between atoms: _466  and  _469
REMARK  181  A    between atoms: _469  and  _470
REMARK  182  A    between atoms: _470  and  _471
REMARK  183  A    between atoms: _473  and  _475
REMARK  184  A    between atoms: _475  and  _476
REMARK  185  A    between atoms: _475  and  _478
REMARK  186  A    between atoms: _478  and  _479
REMARK  187  A    between atoms: _483  and  _484
REMARK  188  A    between atoms: _489  and  _491
REMARK  189  A    between atoms: _491  and  _492
REMARK  190  A    between atoms: _491  and  _494
REMARK  191  A    between atoms: _494  and  _495
REMARK  192  A    between atoms: _500  and  _502
REMARK  193  A    between atoms: _502  and  _503
REMARK  194  A    between atoms: _502  and  _505
REMARK  195  A    between atoms: _505  and  _506
REMARK  196  A    between atoms: _509  and  _511
REMARK  197  A    between atoms: _511  and  _512
REMARK  198  A    between atoms: _511  and  _514
REMARK  199  A    between atoms: _517  and  _519
REMARK  200  A    between atoms: _519  and  _520
REMARK  201  A    between atoms: _519  and  _522
REMARK  202  A    between atoms: _522  and  _523
REMARK  203  A    between atoms: _523  and  _524
REMARK  204  A    between atoms: _524  and  _525
REMARK  205  A    between atoms: _525  and  _526
REMARK  206  A    between atoms: _530  and  _532
REMARK  207  A    between atoms: _532  and  _533
REMARK  208  A    between atoms: _536  and  _538
REMARK  209  A    between atoms: _538  and  _539
REMARK  210  A    between atoms: _538  and  _541
REMARK  211  A    between atoms: _541  and  _542
REMARK  212  A    between atoms: _545  and  _547
REMARK  213  A    between atoms: _547  and  _548
REMARK  214  A    between atoms: _547  and  _550
REMARK  215  A    between atoms: _550  and  _551
REMARK  216  A    between atoms: _554  and  _556
REMARK  217  A    between atoms: _556  and  _557
REMARK  218  A    between atoms: _556  and  _559
REMARK  219  A    between atoms: _559  and  _560
REMARK  220  A    between atoms: _563  and  _565
REMARK  221  A    between atoms: _565  and  _566
REMARK  222  A    between atoms: _565  and  _568
REMARK  223  A    between atoms: _568  and  _569
REMARK  224  A    between atoms: _569  and  _570
REMARK  225  A    between atoms: _573  and  _575
REMARK  226  A    between atoms: _575  and  _576
REMARK  227  A    between atoms: _575  and  _578
REMARK  228  A    between atoms: _578  and  _579
REMARK  229  A    between atoms: _579  and  _580
REMARK  230  A    between atoms: _580  and  _581
REMARK  231  A    between atoms: _581  and  _582
REMARK  232  A    between atoms: _586  and  _588
REMARK  233  A    between atoms: _588  and  _589
REMARK  234  A    between atoms: _588  and  _591
REMARK  235  A    between atoms: _591  and  _592
REMARK                            x       y       z     vdW  Elec       q    Type
REMARK                         _______ _______ _______ _____ _____    ______ ____
ROOT
ATOM      1  O   HOH     1      17.735  12.746  35.141  0.00  0.00    +0.000 OA
ENDROOT
TORSDOF 0
REMARK  Name = ../refined-set-2016/2gzl/2gzl_pocket.pdb
REMARK  235 active torsions:
REMARK  status: ('A' for Active; 'I' for Inactive)
REMARK    1  A    between atoms: _1  and  _3
REMARK    2  A    between atoms: _3  and  _4
REMARK    3  A    between atoms: _3  and  _6
REMARK    4  A    between atoms: _6  and  _7
REMARK    5  A    between atoms: _13  and  _15
REMARK    6  A    between atoms: _24  and  _27
REMARK    7  A    between atoms: _32  and  _33
REMARK    8  A    between atoms: _41  and  _43
REMARK    9  A    between atoms: _43  and  _44
REMARK   10  A    between atoms: _43  and  _46
REMARK   11  A    between atoms: _46  and  _47
REMARK   12  A    between atoms: _50  and  _52
REMARK   13  A    between atoms: _52  and  _53
REMARK   14  A    between atoms: _56  and  _58
REMARK   15  A    between atoms: _58  and  _59
REMARK   16  A    between atoms: _58  and  _61
REMARK   17  A    between atoms: _61  and  _62
REMARK   18  A    between atoms: _67  and  _69
REMARK   19  A    between atoms: _69  and  _70
REMARK   20  A    between atoms: _69  and  _72
REMARK   21  A    between atoms: _72  and  _73
REMARK   22  A    between atoms: _75  and  _77
REMARK   23  A    between atoms: _77  and  _78
REMARK   24  A    between atoms: _77  and  _80
REMARK   25  A    between atoms: _80  and  _81
REMARK   26  A    between atoms: _84  and  _86
REMARK   27  A    between atoms: _86  and  _87
REMARK   28  A    between atoms: _89  and  _91
REMARK   29  A    between atoms: _91  and  _92
REMARK   30  A    between atoms: _91  and  _94
REMARK   31  A    between atoms: _94  and  _95
REMARK   32  A    between atoms: _98  and  _100
REMARK   33  A    between atoms: _100  and  _101
REMARK   34  A    between atoms: _100  and  _103
REMARK   35  A    between atoms: _106  and  _108
REMARK   36  A    between atoms: _108  and  _109
REMARK   37  A    between atoms: _108  and  _111
REMARK   38  A    between atoms: _111  and  _112
REMARK   39  A    between atoms: _113  and  ZN_595
REMARK   40  A    between atoms: _117  and  _119
REMARK   41  A    between atoms: _119  and  _120
REMARK   42  A    between atoms: _123  and  _125
REMARK   43  A    between atoms: _125  and  _126
REMARK   44  A    between atoms: _125  and  _128
REMARK   45  A    between atoms: _128  and  _129
REMARK   46  A    between atoms: _132  and  _134
REMARK   47  A    between atoms: _134  and  _135
REMARK   48  A    between atoms: _134  and  _137
REMARK   49  A    between atoms: _137  and  _138
REMARK   50  A    between atoms: _141  and  _143
REMARK   51  A    between atoms: _143  and  _144
REMARK   52  A    between atoms: _146  and  _148
REMARK   53  A    between atoms: _148  and  _149
REMARK   54  A    between atoms: _148  and  _151
REMARK   55  A    between atoms: _151  and  _152
REMARK   56  A    between atoms: _155  and  _157
REMARK   57  A    between atoms: _157  and  _158
REMARK   58  A    between atoms: _157  and  _160
REMARK   59  A    between atoms: _160  and  _161
REMARK   60  A    between atoms: _164  and  _166
REMARK   61  A    between atoms: _166  and  _167
REMARK   62  A    between atoms: _169  and  _171
REMARK   63  A    between atoms: _171  and  _172
REMARK   64  A    between atoms: _171  and  _174
REMARK   65  A    between atoms: _174  and  _175
REMARK   66  A    between atoms: _175  and  _176
REMARK   67  A    between atoms: _176  and  _177
REMARK   68  A    between atoms: _177  and  _178
REMARK   69  A    between atoms: _182  and  _184
REMARK   70  A    between atoms: _184  and  _185
REMARK   71  A    between atoms: _184  and  _187
REMARK   72  A    between atoms: _187  and  _188
REMARK   73  A    between atoms: _191  and  _193
REMARK   74  A    between atoms: _193  and  _194
REMARK   75  A    between atoms: _193  and  _196
REMARK   76  A    between atoms: _196  and  _197
REMARK   77  A    between atoms: _204  and  _205
REMARK   78  A    between atoms: _210  and  _212
REMARK   79  A    between atoms: _212  and  _213
REMARK   80  A    between atoms: _212  and  _215
REMARK   81  A    between atoms: _215  and  _216
REMARK   82  A    between atoms: _219  and  _221
REMARK   83  A    between atoms: _221  and  _222
REMARK   84  A    between atoms: _221  and  _224
REMARK   85  A    between atoms: _224  and  _225
REMARK   86  A    between atoms: _228  and  _230
REMARK   87  A    between atoms: _230  and  _231
REMARK   88  A    between atoms: _230  and  _233
REMARK   89  A    between atoms: _233  and  _234
REMARK   90  A    between atoms: _238  and  _239
REMARK   91  A    between atoms: _244  and  _246
REMARK   92  A    between atoms: _246  and  _247
REMARK   93  A    between atoms: _250  and  _252
REMARK   94  A    between atoms: _252  and  _253
REMARK   95  A    between atoms: _252  and  _255
REMARK   96  A    between atoms: _255  and  _256
REMARK   97  A    between atoms: _262  and  _264
REMARK   98  A    between atoms: _264  and  _265
REMARK   99  A    between atoms: _267  and  _269
REMARK  100  A    between atoms: _269  and  _270
REMARK  101  A    between atoms: _273  and  _275
REMARK  102  A    between atoms: _275  and  _276
REMARK  103  A    between atoms: _275  and  _278
REMARK  104  A    between atoms: _278  and  _279
REMARK  105  A    between atoms: _282  and  _284
REMARK  106  A    between atoms: _284  and  _285
REMARK  107  A    between atoms: _284  and  _287
REMARK  108  A    between atoms: _287  and  _288
REMARK  109  A    between atoms: _290  and  _292
REMARK  110  A    between atoms: _292  and  _293
REMARK  111  A    between atoms: _292  and  _295
REMARK  112  A    between atoms: _295  and  _296
REMARK  113  A    between atoms: _296  and  _297
REMARK  114  A    between atoms: _297  and  _298
REMARK  115  A    between atoms: _307  and  _309
REMARK  116  A    between atoms: _309  and  _310
REMARK  117  A    between atoms: _309  and  _312
REMARK  118  A    between atoms: _312  and  _313
REMARK  119  A    between atoms: _313  and  _314
REMARK  120  A    between atoms: _317  and  _319
REMARK  121  A    between atoms: _319  and  _320
REMARK  122  A    between atoms: _319  and  _322
REMARK  123  A    between atoms: _322  and  _323
REMARK  124  A    between atoms: _326  and  _328
REMARK  125  A    between atoms: _328  and  _329
REMARK  126  A    between atoms: _328  and  _331
REMARK  127  A    between atoms: _331  and  _332
REMARK  128  A    between atoms: _335  and  _337
REMARK  129  A    between atoms: _337  and  _338
REMARK  130  A    between atoms: _337  and  _340
REMARK  131  A    between atoms: _340  and  _341
REMARK  132  A    between atoms: _341  and  _342
REMARK  133  A    between atoms: _342  and  _343
REMARK  134  A    between atoms: _352  and  _354
REMARK  135  A    between atoms: _354  and  _355
REMARK  136  A    between atoms: _354  and  _357
REMARK  137  A    between atoms: _357  and  _358
REMARK  138  A    between atoms: _358  and  _359
REMARK  139  A    between atoms: _362  and  _364
REMARK  140  A    between atoms: _364  and  _365
REMARK  141  A    between atoms: _368  and  _370
REMARK  142  A    between atoms: _370  and  _371
REMARK  143  A    between atoms: _370  and  _373
REMARK  144  A    between atoms: _373  and  _374
REMARK  145  A    between atoms: _374  and  _375
REMARK  146  A    between atoms: _375  and  _376
REMARK  147  A    between atoms: _385  and  _387
REMARK  148  A    between atoms: _387  and  _388
REMARK  149  A    between atoms: _387  and  _390
REMARK  150  A    between atoms: _390  and  _391
REMARK  151  A    between atoms: _391  and  _392
REMARK  152  A    between atoms: _392  and  _393
REMARK  153  A    between atoms: _402  and  _404
REMARK  154  A    between atoms: _404  and  _405
REMARK  155  A    between atoms: _404  and  _407
REMARK  156  A    between atoms: _407  and  _408
REMARK  157  A    between atoms: _411  and  _413
REMARK  158  A    between atoms: _413  and  _414
REMARK  159  A    between atoms: _413  and  _416
REMARK  160  A    between atoms: _416  and  _417
REMARK  161  A    between atoms: _420  and  _422
REMARK  162  A    between atoms: _422  and  _423
REMARK  163  A    between atoms: _426  and  _428
REMARK  164  A    between atoms: _428  and  _429
REMARK  165  A    between atoms: _428  and  _431
REMARK  166  A    between atoms: _431  and  _432
REMARK  167  A    between atoms: _432  and  _433
REMARK  168  A    between atoms: _438  and  _440
REMARK  169  A    between atoms: _440  and  _441
REMARK  170  A    between atoms: _445  and  _446
REMARK  171  A    between atoms: _451  and  _453
REMARK  172  A    between atoms: _453  and  _454
REMARK  173  A    between atoms: _453  and  _456
REMARK  174  A    between atoms: _456  and  _457
REMARK  175  A    between atoms: _457  and  _458
REMARK  176  A    between atoms: _458  and  _459
REMARK  177  A    between atoms: _459  and  _460
REMARK  178  A    between atoms: _464  and  _466
REMARK  179  A    between atoms: _466  and  _467
REMARK  180  A    between atoms: _466  and  _469
REMARK  181  A    between atoms: _469  and  _470
REMARK  182  A    between atoms: _470  and  _471
REMARK  183  A    between atoms: _473  and  _475
REMARK  184  A    between atoms: _475  and  _476
REMARK  185  A    between atoms: _475  and  _478
REMARK  186  A    between atoms: _478  and  _479
REMARK  187  A    between atoms: _483  and  _484
REMARK  188  A    between atoms: _489  and  _491
REMARK  189  A    between atoms: _491  and  _492
REMARK  190  A    between atoms: _491  and  _494
REMARK  191  A    between atoms: _494  and  _495
REMARK  192  A    between atoms: _500  and  _502
REMARK  193  A    between atoms: _502  and  _503
REMARK  194  A    between atoms: _502  and  _505
REMARK  195  A    between atoms: _505  and  _506
REMARK  196  A    between atoms: _509  and  _511
REMARK  197  A    between atoms: _511  and  _512
REMARK  198  A    between atoms: _511  and  _514
REMARK  199  A    between atoms: _517  and  _519
REMARK  200  A    between atoms: _519  and  _520
REMARK  201  A    between atoms: _519  and  _522
REMARK  202  A    between atoms: _522  and  _523
REMARK  203  A    between atoms: _523  and  _524
REMARK  204  A    between atoms: _524  and  _525
REMARK  205  A    between atoms: _525  and  _526
REMARK  206  A    between atoms: _530  and  _532
REMARK  207  A    between atoms: _532  and  _533
REMARK  208  A    between atoms: _536  and  _538
REMARK  209  A    between atoms: _538  and  _539
REMARK  210  A    between atoms: _538  and  _541
REMARK  211  A    between atoms: _541  and  _542
REMARK  212  A    between atoms: _545  and  _547
REMARK  213  A    between atoms: _547  and  _548
REMARK  214  A    between atoms: _547  and  _550
REMARK  215  A    between atoms: _550  and  _551
REMARK  216  A    between atoms: _554  and  _556
REMARK  217  A    between atoms: _556  and  _557
REMARK  218  A    between atoms: _556  and  _559
REMARK  219  A    between atoms: _559  and  _560
REMARK  220  A    between atoms: _563  and  _565
REMARK  221  A    between atoms: _565  and  _566
REMARK  222  A    between atoms: _565  and  _568
REMARK  223  A    between atoms: _568  and  _569
REMARK  224  A    between atoms: _569  and  _570
REMARK  225  A    between atoms: _573  and  _575
REMARK  226  A    between atoms: _575  and  _576
REMARK  227  A    between atoms: _575  and  _578
REMARK  228  A    between atoms: _578  and  _579
REMARK  229  A    between atoms: _579  and  _580
REMARK  230  A    between atoms: _580  and  _581
REMARK  231  A    between atoms: _581  and  _582
REMARK  232  A    between atoms: _586  and  _588
REMARK  233  A    between atoms: _588  and  _589
REMARK  234  A    between atoms: _588  and  _591
REMARK  235  A    between atoms: _591  and  _592
REMARK                            x       y       z     vdW  Elec       q    Type
REMARK                         _______ _______ _______ _____ _____    ______ ____
ROOT
ATOM      1  O   HOH     1       5.653  12.384  31.635  0.00  0.00    +0.000 OA
ENDROOT
TORSDOF 0
REMARK  Name = ../refined-set-2016/2gzl/2gzl_pocket.pdb
REMARK  235 active torsions:
REMARK  status: ('A' for Active; 'I' for Inactive)
REMARK    1  A    between atoms: _1  and  _3
REMARK    2  A    between atoms: _3  and  _4
REMARK    3  A    between atoms: _3  and  _6
REMARK    4  A    between atoms: _6  and  _7
REMARK    5  A    between atoms: _13  and  _15
REMARK    6  A    between atoms: _24  and  _27
REMARK    7  A    between atoms: _32  and  _33
REMARK    8  A    between atoms: _41  and  _43
REMARK    9  A    between atoms: _43  and  _44
REMARK   10  A    between atoms: _43  and  _46
REMARK   11  A    between atoms: _46  and  _47
REMARK   12  A    between atoms: _50  and  _52
REMARK   13  A    between atoms: _52  and  _53
REMARK   14  A    between atoms: _56  and  _58
REMARK   15  A    between atoms: _58  and  _59
REMARK   16  A    between atoms: _58  and  _61
REMARK   17  A    between atoms: _61  and  _62
REMARK   18  A    between atoms: _67  and  _69
REMARK   19  A    between atoms: _69  and  _70
REMARK   20  A    between atoms: _69  and  _72
REMARK   21  A    between atoms: _72  and  _73
REMARK   22  A    between atoms: _75  and  _77
REMARK   23  A    between atoms: _77  and  _78
REMARK   24  A    between atoms: _77  and  _80
REMARK   25  A    between atoms: _80  and  _81
REMARK   26  A    between atoms: _84  and  _86
REMARK   27  A    between atoms: _86  and  _87
REMARK   28  A    between atoms: _89  and  _91
REMARK   29  A    between atoms: _91  and  _92
REMARK   30  A    between atoms: _91  and  _94
REMARK   31  A    between atoms: _94  and  _95
REMARK   32  A    between atoms: _98  and  _100
REMARK   33  A    between atoms: _100  and  _101
REMARK   34  A    between atoms: _100  and  _103
REMARK   35  A    between atoms: _106  and  _108
REMARK   36  A    between atoms: _108  and  _109
REMARK   37  A    between atoms: _108  and  _111
REMARK   38  A    between atoms: _111  and  _112
REMARK   39  A    between atoms: _113  and  ZN_595
REMARK   40  A    between atoms: _117  and  _119
REMARK   41  A    between atoms: _119  and  _120
REMARK   42  A    between atoms: _123  and  _125
REMARK   43  A    between atoms: _125  and  _126
REMARK   44  A    between atoms: _125  and  _128
REMARK   45  A    between atoms: _128  and  _129
REMARK   46  A    between atoms: _132  and  _134
REMARK   47  A    between atoms: _134  and  _135
REMARK   48  A    between atoms: _134  and  _137
REMARK   49  A    between atoms: _137  and  _138
REMARK   50  A    between atoms: _141  and  _143
REMARK   51  A    between atoms: _143  and  _144
REMARK   52  A    between atoms: _146  and  _148
REMARK   53  A    between atoms: _148  and  _149
REMARK   54  A    between atoms: _148  and  _151
REMARK   55  A    between atoms: _151  and  _152
REMARK   56  A    between atoms: _155  and  _157
REMARK   57  A    between atoms: _157  and  _158
REMARK   58  A    between atoms: _157  and  _160
REMARK   59  A    between atoms: _160  and  _161
REMARK   60  A    between atoms: _164  and  _166
REMARK   61  A    between atoms: _166  and  _167
REMARK   62  A    between atoms: _169  and  _171
REMARK   63  A    between atoms: _171  and  _172
REMARK   64  A    between atoms: _171  and  _174
REMARK   65  A    between atoms: _174  and  _175
REMARK   66  A    between atoms: _175  and  _176
REMARK   67  A    between atoms: _176  and  _177
REMARK   68  A    between atoms: _177  and  _178
REMARK   69  A    between atoms: _182  and  _184
REMARK   70  A    between atoms: _184  and  _185
REMARK   71  A    between atoms: _184  and  _187
REMARK   72  A    between atoms: _187  and  _188
REMARK   73  A    between atoms: _191  and  _193
REMARK   74  A    between atoms: _193  and  _194
REMARK   75  A    between atoms: _193  and  _196
REMARK   76  A    between atoms: _196  and  _197
REMARK   77  A    between atoms: _204  and  _205
REMARK   78  A    between atoms: _210  and  _212
REMARK   79  A    between atoms: _212  and  _213
REMARK   80  A    between atoms: _212  and  _215
REMARK   81  A    between atoms: _215  and  _216
REMARK   82  A    between atoms: _219  and  _221
REMARK   83  A    between atoms: _221  and  _222
REMARK   84  A    between atoms: _221  and  _224
REMARK   85  A    between atoms: _224  and  _225
REMARK   86  A    between atoms: _228  and  _230
REMARK   87  A    between atoms: _230  and  _231
REMARK   88  A    between atoms: _230  and  _233
REMARK   89  A    between atoms: _233  and  _234
REMARK   90  A    between atoms: _238  and  _239
REMARK   91  A    between atoms: _244  and  _246
REMARK   92  A    between atoms: _246  and  _247
REMARK   93  A    between atoms: _250  and  _252
REMARK   94  A    between atoms: _252  and  _253
REMARK   95  A    between atoms: _252  and  _255
REMARK   96  A    between atoms: _255  and  _256
REMARK   97  A    between atoms: _262  and  _264
REMARK   98  A    between atoms: _264  and  _265
REMARK   99  A    between atoms: _267  and  _269
REMARK  100  A    between atoms: _269  and  _270
REMARK  101  A    between atoms: _273  and  _275
REMARK  102  A    between atoms: _275  and  _276
REMARK  103  A    between atoms: _275  and  _278
REMARK  104  A    between atoms: _278  and  _279
REMARK  105  A    between atoms: _282  and  _284
REMARK  106  A    between atoms: _284  and  _285
REMARK  107  A    between atoms: _284  and  _287
REMARK  108  A    between atoms: _287  and  _288
REMARK  109  A    between atoms: _290  and  _292
REMARK  110  A    between atoms: _292  and  _293
REMARK  111  A    between atoms: _292  and  _295
REMARK  112  A    between atoms: _295  and  _296
REMARK  113  A    between atoms: _296  and  _297
REMARK  114  A    between atoms: _297  and  _298
REMARK  115  A    between atoms: _307  and  _309
REMARK  116  A    between atoms: _309  and  _310
REMARK  117  A    between atoms: _309  and  _312
REMARK  118  A    between atoms: _312  and  _313
REMARK  119  A    between atoms: _313  and  _314
REMARK  120  A    between atoms: _317  and  _319
REMARK  121  A    between atoms: _319  and  _320
REMARK  122  A    between atoms: _319  and  _322
REMARK  123  A    between atoms: _322  and  _323
REMARK  124  A    between atoms: _326  and  _328
REMARK  125  A    between atoms: _328  and  _329
REMARK  126  A    between atoms: _328  and  _331
REMARK  127  A    between atoms: _331  and  _332
REMARK  128  A    between atoms: _335  and  _337
REMARK  129  A    between atoms: _337  and  _338
REMARK  130  A    between atoms: _337  and  _340
REMARK  131  A    between atoms: _340  and  _341
REMARK  132  A    between atoms: _341  and  _342
REMARK  133  A    between atoms: _342  and  _343
REMARK  134  A    between atoms: _352  and  _354
REMARK  135  A    between atoms: _354  and  _355
REMARK  136  A    between atoms: _354  and  _357
REMARK  137  A    between atoms: _357  and  _358
REMARK  138  A    between atoms: _358  and  _359
REMARK  139  A    between atoms: _362  and  _364
REMARK  140  A    between atoms: _364  and  _365
REMARK  141  A    between atoms: _368  and  _370
REMARK  142  A    between atoms: _370  and  _371
REMARK  143  A    between atoms: _370  and  _373
REMARK  144  A    between atoms: _373  and  _374
REMARK  145  A    between atoms: _374  and  _375
REMARK  146  A    between atoms: _375  and  _376
REMARK  147  A    between atoms: _385  and  _387
REMARK  148  A    between atoms: _387  and  _388
REMARK  149  A    between atoms: _387  and  _390
REMARK  150  A    between atoms: _390  and  _391
REMARK  151  A    between atoms: _391  and  _392
REMARK  152  A    between atoms: _392  and  _393
REMARK  153  A    between atoms: _402  and  _404
REMARK  154  A    between atoms: _404  and  _405
REMARK  155  A    between atoms: _404  and  _407
REMARK  156  A    between atoms: _407  and  _408
REMARK  157  A    between atoms: _411  and  _413
REMARK  158  A    between atoms: _413  and  _414
REMARK  159  A    between atoms: _413  and  _416
REMARK  160  A    between atoms: _416  and  _417
REMARK  161  A    between atoms: _420  and  _422
REMARK  162  A    between atoms: _422  and  _423
REMARK  163  A    between atoms: _426  and  _428
REMARK  164  A    between atoms: _428  and  _429
REMARK  165  A    between atoms: _428  and  _431
REMARK  166  A    between atoms: _431  and  _432
REMARK  167  A    between atoms: _432  and  _433
REMARK  168  A    between atoms: _438  and  _440
REMARK  169  A    between atoms: _440  and  _441
REMARK  170  A    between atoms: _445  and  _446
REMARK  171  A    between atoms: _451  and  _453
REMARK  172  A    between atoms: _453  and  _454
REMARK  173  A    between atoms: _453  and  _456
REMARK  174  A    between atoms: _456  and  _457
REMARK  175  A    between atoms: _457  and  _458
REMARK  176  A    between atoms: _458  and  _459
REMARK  177  A    between atoms: _459  and  _460
REMARK  178  A    between atoms: _464  and  _466
REMARK  179  A    between atoms: _466  and  _467
REMARK  180  A    between atoms: _466  and  _469
REMARK  181  A    between atoms: _469  and  _470
REMARK  182  A    between atoms: _470  and  _471
REMARK  183  A    between atoms: _473  and  _475
REMARK  184  A    between atoms: _475  and  _476
REMARK  185  A    between atoms: _475  and  _478
REMARK  186  A    between atoms: _478  and  _479
REMARK  187  A    between atoms: _483  and  _484
REMARK  188  A    between atoms: _489  and  _491
REMARK  189  A    between atoms: _491  and  _492
REMARK  190  A    between atoms: _491  and  _494
REMARK  191  A    between atoms: _494  and  _495
REMARK  192  A    between atoms: _500  and  _502
REMARK  193  A    between atoms: _502  and  _503
REMARK  194  A    between atoms: _502  and  _505
REMARK  195  A    between atoms: _505  and  _506
REMARK  196  A    between atoms: _509  and  _511
REMARK  197  A    between atoms: _511  and  _512
REMARK  198  A    between atoms: _511  and  _514
REMARK  199  A    between atoms: _517  and  _519
REMARK  200  A    between atoms: _519  and  _520
REMARK  201  A    between atoms: _519  and  _522
REMARK  202  A    between atoms: _522  and  _523
REMARK  203  A    between atoms: _523  and  _524
REMARK  204  A    between atoms: _524  and  _525
REMARK  205  A    between atoms: _525  and  _526
REMARK  206  A    between atoms: _530  and  _532
REMARK  207  A    between atoms: _532  and  _533
REMARK  208  A    between atoms: _536  and  _538
REMARK  209  A    between atoms: _538  and  _539
REMARK  210  A    between atoms: _538  and  _541
REMARK  211  A    between atoms: _541  and  _542
REMARK  212  A    between atoms: _545  and  _547
REMARK  213  A    between atoms: _547  and  _548
REMARK  214  A    between atoms: _547  and  _550
REMARK  215  A    between atoms: _550  and  _551
REMARK  216  A    between atoms: _554  and  _556
REMARK  217  A    between atoms: _556  and  _557
REMARK  218  A    between atoms: _556  and  _559
REMARK  219  A    between atoms: _559  and  _560
REMARK  220  A    between atoms: _563  and  _565
REMARK  221  A    between atoms: _565  and  _566
REMARK  222  A    between atoms: _565  and  _568
REMARK  223  A    between atoms: _568  and  _569
REMARK  224  A    between atoms: _569  and  _570
REMARK  225  A    between atoms: _573  and  _575
REMARK  226  A    between atoms: _575  and  _576
REMARK  227  A    between atoms: _575  and  _578
REMARK  228  A    between atoms: _578  and  _579
REMARK  229  A    between atoms: _579  and  _580
REMARK  230  A    between atoms: _580  and  _581
REMARK  231  A    between atoms: _581  and  _582
REMARK  232  A    between atoms: _586  and  _588
REMARK  233  A    between atoms: _588  and  _589
REMARK  234  A    between atoms: _588  and  _591
REMARK  235  A    between atoms: _591  and  _592
REMARK                            x       y       z     vdW  Elec       q    Type
REMARK                         _______ _______ _______ _____ _____    ______ ____
ROOT
ATOM      1  O   HOH     1       3.000  15.350  30.059  0.00  0.00    +0.000 OA
ENDROOT
TORSDOF 0
REMARK  Name = ../refined-set-2016/2gzl/2gzl_pocket.pdb
REMARK  235 active torsions:
REMARK  status: ('A' for Active; 'I' for Inactive)
REMARK    1  A    between atoms: _1  and  _3
REMARK    2  A    between atoms: _3  and  _4
REMARK    3  A    between atoms: _3  and  _6
REMARK    4  A    between atoms: _6  and  _7
REMARK    5  A    between atoms: _13  and  _15
REMARK    6  A    between atoms: _24  and  _27
REMARK    7  A    between atoms: _32  and  _33
REMARK    8  A    between atoms: _41  and  _43
REMARK    9  A    between atoms: _43  and  _44
REMARK   10  A    between atoms: _43  and  _46
REMARK   11  A    between atoms: _46  and  _47
REMARK   12  A    between atoms: _50  and  _52
REMARK   13  A    between atoms: _52  and  _53
REMARK   14  A    between atoms: _56  and  _58
REMARK   15  A    between atoms: _58  and  _59
REMARK   16  A    between atoms: _58  and  _61
REMARK   17  A    between atoms: _61  and  _62
REMARK   18  A    between atoms: _67  and  _69
REMARK   19  A    between atoms: _69  and  _70
REMARK   20  A    between atoms: _69  and  _72
REMARK   21  A    between atoms: _72  and  _73
REMARK   22  A    between atoms: _75  and  _77
REMARK   23  A    between atoms: _77  and  _78
REMARK   24  A    between atoms: _77  and  _80
REMARK   25  A    between atoms: _80  and  _81
REMARK   26  A    between atoms: _84  and  _86
REMARK   27  A    between atoms: _86  and  _87
REMARK   28  A    between atoms: _89  and  _91
REMARK   29  A    between atoms: _91  and  _92
REMARK   30  A    between atoms: _91  and  _94
REMARK   31  A    between atoms: _94  and  _95
REMARK   32  A    between atoms: _98  and  _100
REMARK   33  A    between atoms: _100  and  _101
REMARK   34  A    between atoms: _100  and  _103
REMARK   35  A    between atoms: _106  and  _108
REMARK   36  A    between atoms: _108  and  _109
REMARK   37  A    between atoms: _108  and  _111
REMARK   38  A    between atoms: _111  and  _112
REMARK   39  A    between atoms: _113  and  ZN_595
REMARK   40  A    between atoms: _117  and  _119
REMARK   41  A    between atoms: _119  and  _120
REMARK   42  A    between atoms: _123  and  _125
REMARK   43  A    between atoms: _125  and  _126
REMARK   44  A    between atoms: _125  and  _128
REMARK   45  A    between atoms: _128  and  _129
REMARK   46  A    between atoms: _132  and  _134
REMARK   47  A    between atoms: _134  and  _135
REMARK   48  A    between atoms: _134  and  _137
REMARK   49  A    between atoms: _137  and  _138
REMARK   50  A    between atoms: _141  and  _143
REMARK   51  A    between atoms: _143  and  _144
REMARK   52  A    between atoms: _146  and  _148
REMARK   53  A    between atoms: _148  and  _149
REMARK   54  A    between atoms: _148  and  _151
REMARK   55  A    between atoms: _151  and  _152
REMARK   56  A    between atoms: _155  and  _157
REMARK   57  A    between atoms: _157  and  _158
REMARK   58  A    between atoms: _157  and  _160
REMARK   59  A    between atoms: _160  and  _161
REMARK   60  A    between atoms: _164  and  _166
REMARK   61  A    between atoms: _166  and  _167
REMARK   62  A    between atoms: _169  and  _171
REMARK   63  A    between atoms: _171  and  _172
REMARK   64  A    between atoms: _171  and  _174
REMARK   65  A    between atoms: _174  and  _175
REMARK   66  A    between atoms: _175  and  _176
REMARK   67  A    between atoms: _176  and  _177
REMARK   68  A    between atoms: _177  and  _178
REMARK   69  A    between atoms: _182  and  _184
REMARK   70  A    between atoms: _184  and  _185
REMARK   71  A    between atoms: _184  and  _187
REMARK   72  A    between atoms: _187  and  _188
REMARK   73  A    between atoms: _191  and  _193
REMARK   74  A    between atoms: _193  and  _194
REMARK   75  A    between atoms: _193  and  _196
REMARK   76  A    between atoms: _196  and  _197
REMARK   77  A    between atoms: _204  and  _205
REMARK   78  A    between atoms: _210  and  _212
REMARK   79  A    between atoms: _212  and  _213
REMARK   80  A    between atoms: _212  and  _215
REMARK   81  A    between atoms: _215  and  _216
REMARK   82  A    between atoms: _219  and  _221
REMARK   83  A    between atoms: _221  and  _222
REMARK   84  A    between atoms: _221  and  _224
REMARK   85  A    between atoms: _224  and  _225
REMARK   86  A    between atoms: _228  and  _230
REMARK   87  A    between atoms: _230  and  _231
REMARK   88  A    between atoms: _230  and  _233
REMARK   89  A    between atoms: _233  and  _234
REMARK   90  A    between atoms: _238  and  _239
REMARK   91  A    between atoms: _244  and  _246
REMARK   92  A    between atoms: _246  and  _247
REMARK   93  A    between atoms: _250  and  _252
REMARK   94  A    between atoms: _252  and  _253
REMARK   95  A    between atoms: _252  and  _255
REMARK   96  A    between atoms: _255  and  _256
REMARK   97  A    between atoms: _262  and  _264
REMARK   98  A    between atoms: _264  and  _265
REMARK   99  A    between atoms: _267  and  _269
REMARK  100  A    between atoms: _269  and  _270
REMARK  101  A    between atoms: _273  and  _275
REMARK  102  A    between atoms: _275  and  _276
REMARK  103  A    between atoms: _275  and  _278
REMARK  104  A    between atoms: _278  and  _279
REMARK  105  A    between atoms: _282  and  _284
REMARK  106  A    between atoms: _284  and  _285
REMARK  107  A    between atoms: _284  and  _287
REMARK  108  A    between atoms: _287  and  _288
REMARK  109  A    between atoms: _290  and  _292
REMARK  110  A    between atoms: _292  and  _293
REMARK  111  A    between atoms: _292  and  _295
REMARK  112  A    between atoms: _295  and  _296
REMARK  113  A    between atoms: _296  and  _297
REMARK  114  A    between atoms: _297  and  _298
REMARK  115  A    between atoms: _307  and  _309
REMARK  116  A    between atoms: _309  and  _310
REMARK  117  A    between atoms: _309  and  _312
REMARK  118  A    between atoms: _312  and  _313
REMARK  119  A    between atoms: _313  and  _314
REMARK  120  A    between atoms: _317  and  _319
REMARK  121  A    between atoms: _319  and  _320
REMARK  122  A    between atoms: _319  and  _322
REMARK  123  A    between atoms: _322  and  _323
REMARK  124  A    between atoms: _326  and  _328
REMARK  125  A    between atoms: _328  and  _329
REMARK  126  A    between atoms: _328  and  _331
REMARK  127  A    between atoms: _331  and  _332
REMARK  128  A    between atoms: _335  and  _337
REMARK  129  A    between atoms: _337  and  _338
REMARK  130  A    between atoms: _337  and  _340
REMARK  131  A    between atoms: _340  and  _341
REMARK  132  A    between atoms: _341  and  _342
REMARK  133  A    between atoms: _342  and  _343
REMARK  134  A    between atoms: _352  and  _354
REMARK  135  A    between atoms: _354  and  _355
REMARK  136  A    between atoms: _354  and  _357
REMARK  137  A    between atoms: _357  and  _358
REMARK  138  A    between atoms: _358  and  _359
REMARK  139  A    between atoms: _362  and  _364
REMARK  140  A    between atoms: _364  and  _365
REMARK  141  A    between atoms: _368  and  _370
REMARK  142  A    between atoms: _370  and  _371
REMARK  143  A    between atoms: _370  and  _373
REMARK  144  A    between atoms: _373  and  _374
REMARK  145  A    between atoms: _374  and  _375
REMARK  146  A    between atoms: _375  and  _376
REMARK  147  A    between atoms: _385  and  _387
REMARK  148  A    between atoms: _387  and  _388
REMARK  149  A    between atoms: _387  and  _390
REMARK  150  A    between atoms: _390  and  _391
REMARK  151  A    between atoms: _391  and  _392
REMARK  152  A    between atoms: _392  and  _393
REMARK  153  A    between atoms: _402  and  _404
REMARK  154  A    between atoms: _404  and  _405
REMARK  155  A    between atoms: _404  and  _407
REMARK  156  A    between atoms: _407  and  _408
REMARK  157  A    between atoms: _411  and  _413
REMARK  158  A    between atoms: _413  and  _414
REMARK  159  A    between atoms: _413  and  _416
REMARK  160  A    between atoms: _416  and  _417
REMARK  161  A    between atoms: _420  and  _422
REMARK  162  A    between atoms: _422  and  _423
REMARK  163  A    between atoms: _426  and  _428
REMARK  164  A    between atoms: _428  and  _429
REMARK  165  A    between atoms: _428  and  _431
REMARK  166  A    between atoms: _431  and  _432
REMARK  167  A    between atoms: _432  and  _433
REMARK  168  A    between atoms: _438  and  _440
REMARK  169  A    between atoms: _440  and  _441
REMARK  170  A    between atoms: _445  and  _446
REMARK  171  A    between atoms: _451  and  _453
REMARK  172  A    between atoms: _453  and  _454
REMARK  173  A    between atoms: _453  and  _456
REMARK  174  A    between atoms: _456  and  _457
REMARK  175  A    between atoms: _457  and  _458
REMARK  176  A    between atoms: _458  and  _459
REMARK  177  A    between atoms: _459  and  _460
REMARK  178  A    between atoms: _464  and  _466
REMARK  179  A    between atoms: _466  and  _467
REMARK  180  A    between atoms: _466  and  _469
REMARK  181  A    between atoms: _469  and  _470
REMARK  182  A    between atoms: _470  and  _471
REMARK  183  A    between atoms: _473  and  _475
REMARK  184  A    between atoms: _475  and  _476
REMARK  185  A    between atoms: _475  and  _478
REMARK  186  A    between atoms: _478  and  _479
REMARK  187  A    between atoms: _483  and  _484
REMARK  188  A    between atoms: _489  and  _491
REMARK  189  A    between atoms: _491  and  _492
REMARK  190  A    between atoms: _491  and  _494
REMARK  191  A    between atoms: _494  and  _495
REMARK  192  A    between atoms: _500  and  _502
REMARK  193  A    between atoms: _502  and  _503
REMARK  194  A    between atoms: _502  and  _505
REMARK  195  A    between atoms: _505  and  _506
REMARK  196  A    between atoms: _509  and  _511
REMARK  197  A    between atoms: _511  and  _512
REMARK  198  A    between atoms: _511  and  _514
REMARK  199  A    between atoms: _517  and  _519
REMARK  200  A    between atoms: _519  and  _520
REMARK  201  A    between atoms: _519  and  _522
REMARK  202  A    between atoms: _522  and  _523
REMARK  203  A    between atoms: _523  and  _524
REMARK  204  A    between atoms: _524  and  _525
REMARK  205  A    between atoms: _525  and  _526
REMARK  206  A    between atoms: _530  and  _532
REMARK  207  A    between atoms: _532  and  _533
REMARK  208  A    between atoms: _536  and  _538
REMARK  209  A    between atoms: _538  and  _539
REMARK  210  A    between atoms: _538  and  _541
REMARK  211  A    between atoms: _541  and  _542
REMARK  212  A    between atoms: _545  and  _547
REMARK  213  A    between atoms: _547  and  _548
REMARK  214  A    between atoms: _547  and  _550
REMARK  215  A    between atoms: _550  and  _551
REMARK  216  A    between atoms: _554  and  _556
REMARK  217  A    between atoms: _556  and  _557
REMARK  218  A    between atoms: _556  and  _559
REMARK  219  A    between atoms: _559  and  _560
REMARK  220  A    between atoms: _563  and  _565
REMARK  221  A    between atoms: _565  and  _566
REMARK  222  A    between atoms: _565  and  _568
REMARK  223  A    between atoms: _568  and  _569
REMARK  224  A    between atoms: _569  and  _570
REMARK  225  A    between atoms: _573  and  _575
REMARK  226  A    between atoms: _575  and  _576
REMARK  227  A    between atoms: _575  and  _578
REMARK  228  A    between atoms: _578  and  _579
REMARK  229  A    between atoms: _579  and  _580
REMARK  230  A    between atoms: _580  and  _581
REMARK  231  A    between atoms: _581  and  _582
REMARK  232  A    between atoms: _586  and  _588
REMARK  233  A    between atoms: _588  and  _589
REMARK  234  A    between atoms: _588  and  _591
REMARK  235  A    between atoms: _591  and  _592
REMARK                            x       y       z     vdW  Elec       q    Type
REMARK                         _______ _______ _______ _____ _____    ______ ____
ROOT
ATOM      1  O   HOH     1      13.413   4.910  20.764  0.00  0.00    +0.000 OA
ENDROOT
TORSDOF 0
REMARK  Name = ../refined-set-2016/2gzl/2gzl_pocket.pdb
REMARK  235 active torsions:
REMARK  status: ('A' for Active; 'I' for Inactive)
REMARK    1  A    between atoms: _1  and  _3
REMARK    2  A    between atoms: _3  and  _4
REMARK    3  A    between atoms: _3  and  _6
REMARK    4  A    between atoms: _6  and  _7
REMARK    5  A    between atoms: _13  and  _15
REMARK    6  A    between atoms: _24  and  _27
REMARK    7  A    between atoms: _32  and  _33
REMARK    8  A    between atoms: _41  and  _43
REMARK    9  A    between atoms: _43  and  _44
REMARK   10  A    between atoms: _43  and  _46
REMARK   11  A    between atoms: _46  and  _47
REMARK   12  A    between atoms: _50  and  _52
REMARK   13  A    between atoms: _52  and  _53
REMARK   14  A    between atoms: _56  and  _58
REMARK   15  A    between atoms: _58  and  _59
REMARK   16  A    between atoms: _58  and  _61
REMARK   17  A    between atoms: _61  and  _62
REMARK   18  A    between atoms: _67  and  _69
REMARK   19  A    between atoms: _69  and  _70
REMARK   20  A    between atoms: _69  and  _72
REMARK   21  A    between atoms: _72  and  _73
REMARK   22  A    between atoms: _75  and  _77
REMARK   23  A    between atoms: _77  and  _78
REMARK   24  A    between atoms: _77  and  _80
REMARK   25  A    between atoms: _80  and  _81
REMARK   26  A    between atoms: _84  and  _86
REMARK   27  A    between atoms: _86  and  _87
REMARK   28  A    between atoms: _89  and  _91
REMARK   29  A    between atoms: _91  and  _92
REMARK   30  A    between atoms: _91  and  _94
REMARK   31  A    between atoms: _94  and  _95
REMARK   32  A    between atoms: _98  and  _100
REMARK   33  A    between atoms: _100  and  _101
REMARK   34  A    between atoms: _100  and  _103
REMARK   35  A    between atoms: _106  and  _108
REMARK   36  A    between atoms: _108  and  _109
REMARK   37  A    between atoms: _108  and  _111
REMARK   38  A    between atoms: _111  and  _112
REMARK   39  A    between atoms: _113  and  ZN_595
REMARK   40  A    between atoms: _117  and  _119
REMARK   41  A    between atoms: _119  and  _120
REMARK   42  A    between atoms: _123  and  _125
REMARK   43  A    between atoms: _125  and  _126
REMARK   44  A    between atoms: _125  and  _128
REMARK   45  A    between atoms: _128  and  _129
REMARK   46  A    between atoms: _132  and  _134
REMARK   47  A    between atoms: _134  and  _135
REMARK   48  A    between atoms: _134  and  _137
REMARK   49  A    between atoms: _137  and  _138
REMARK   50  A    between atoms: _141  and  _143
REMARK   51  A    between atoms: _143  and  _144
REMARK   52  A    between atoms: _146  and  _148
REMARK   53  A    between atoms: _148  and  _149
REMARK   54  A    between atoms: _148  and  _151
REMARK   55  A    between atoms: _151  and  _152
REMARK   56  A    between atoms: _155  and  _157
REMARK   57  A    between atoms: _157  and  _158
REMARK   58  A    between atoms: _157  and  _160
REMARK   59  A    between atoms: _160  and  _161
REMARK   60  A    between atoms: _164  and  _166
REMARK   61  A    between atoms: _166  and  _167
REMARK   62  A    between atoms: _169  and  _171
REMARK   63  A    between atoms: _171  and  _172
REMARK   64  A    between atoms: _171  and  _174
REMARK   65  A    between atoms: _174  and  _175
REMARK   66  A    between atoms: _175  and  _176
REMARK   67  A    between atoms: _176  and  _177
REMARK   68  A    between atoms: _177  and  _178
REMARK   69  A    between atoms: _182  and  _184
REMARK   70  A    between atoms: _184  and  _185
REMARK   71  A    between atoms: _184  and  _187
REMARK   72  A    between atoms: _187  and  _188
REMARK   73  A    between atoms: _191  and  _193
REMARK   74  A    between atoms: _193  and  _194
REMARK   75  A    between atoms: _193  and  _196
REMARK   76  A    between atoms: _196  and  _197
REMARK   77  A    between atoms: _204  and  _205
REMARK   78  A    between atoms: _210  and  _212
REMARK   79  A    between atoms: _212  and  _213
REMARK   80  A    between atoms: _212  and  _215
REMARK   81  A    between atoms: _215  and  _216
REMARK   82  A    between atoms: _219  and  _221
REMARK   83  A    between atoms: _221  and  _222
REMARK   84  A    between atoms: _221  and  _224
REMARK   85  A    between atoms: _224  and  _225
REMARK   86  A    between atoms: _228  and  _230
REMARK   87  A    between atoms: _230  and  _231
REMARK   88  A    between atoms: _230  and  _233
REMARK   89  A    between atoms: _233  and  _234
REMARK   90  A    between atoms: _238  and  _239
REMARK   91  A    between atoms: _244  and  _246
REMARK   92  A    between atoms: _246  and  _247
REMARK   93  A    between atoms: _250  and  _252
REMARK   94  A    between atoms: _252  and  _253
REMARK   95  A    between atoms: _252  and  _255
REMARK   96  A    between atoms: _255  and  _256
REMARK   97  A    between atoms: _262  and  _264
REMARK   98  A    between atoms: _264  and  _265
REMARK   99  A    between atoms: _267  and  _269
REMARK  100  A    between atoms: _269  and  _270
REMARK  101  A    between atoms: _273  and  _275
REMARK  102  A    between atoms: _275  and  _276
REMARK  103  A    between atoms: _275  and  _278
REMARK  104  A    between atoms: _278  and  _279
REMARK  105  A    between atoms: _282  and  _284
REMARK  106  A    between atoms: _284  and  _285
REMARK  107  A    between atoms: _284  and  _287
REMARK  108  A    between atoms: _287  and  _288
REMARK  109  A    between atoms: _290  and  _292
REMARK  110  A    between atoms: _292  and  _293
REMARK  111  A    between atoms: _292  and  _295
REMARK  112  A    between atoms: _295  and  _296
REMARK  113  A    between atoms: _296  and  _297
REMARK  114  A    between atoms: _297  and  _298
REMARK  115  A    between atoms: _307  and  _309
REMARK  116  A    between atoms: _309  and  _310
REMARK  117  A    between atoms: _309  and  _312
REMARK  118  A    between atoms: _312  and  _313
REMARK  119  A    between atoms: _313  and  _314
REMARK  120  A    between atoms: _317  and  _319
REMARK  121  A    between atoms: _319  and  _320
REMARK  122  A    between atoms: _319  and  _322
REMARK  123  A    between atoms: _322  and  _323
REMARK  124  A    between atoms: _326  and  _328
REMARK  125  A    between atoms: _328  and  _329
REMARK  126  A    between atoms: _328  and  _331
REMARK  127  A    between atoms: _331  and  _332
REMARK  128  A    between atoms: _335  and  _337
REMARK  129  A    between atoms: _337  and  _338
REMARK  130  A    between atoms: _337  and  _340
REMARK  131  A    between atoms: _340  and  _341
REMARK  132  A    between atoms: _341  and  _342
REMARK  133  A    between atoms: _342  and  _343
REMARK  134  A    between atoms: _352  and  _354
REMARK  135  A    between atoms: _354  and  _355
REMARK  136  A    between atoms: _354  and  _357
REMARK  137  A    between atoms: _357  and  _358
REMARK  138  A    between atoms: _358  and  _359
REMARK  139  A    between atoms: _362  and  _364
REMARK  140  A    between atoms: _364  and  _365
REMARK  141  A    between atoms: _368  and  _370
REMARK  142  A    between atoms: _370  and  _371
REMARK  143  A    between atoms: _370  and  _373
REMARK  144  A    between atoms: _373  and  _374
REMARK  145  A    between atoms: _374  and  _375
REMARK  146  A    between atoms: _375  and  _376
REMARK  147  A    between atoms: _385  and  _387
REMARK  148  A    between atoms: _387  and  _388
REMARK  149  A    between atoms: _387  and  _390
REMARK  150  A    between atoms: _390  and  _391
REMARK  151  A    between atoms: _391  and  _392
REMARK  152  A    between atoms: _392  and  _393
REMARK  153  A    between atoms: _402  and  _404
REMARK  154  A    between atoms: _404  and  _405
REMARK  155  A    between atoms: _404  and  _407
REMARK  156  A    between atoms: _407  and  _408
REMARK  157  A    between atoms: _411  and  _413
REMARK  158  A    between atoms: _413  and  _414
REMARK  159  A    between atoms: _413  and  _416
REMARK  160  A    between atoms: _416  and  _417
REMARK  161  A    between atoms: _420  and  _422
REMARK  162  A    between atoms: _422  and  _423
REMARK  163  A    between atoms: _426  and  _428
REMARK  164  A    between atoms: _428  and  _429
REMARK  165  A    between atoms: _428  and  _431
REMARK  166  A    between atoms: _431  and  _432
REMARK  167  A    between atoms: _432  and  _433
REMARK  168  A    between atoms: _438  and  _440
REMARK  169  A    between atoms: _440  and  _441
REMARK  170  A    between atoms: _445  and  _446
REMARK  171  A    between atoms: _451  and  _453
REMARK  172  A    between atoms: _453  and  _454
REMARK  173  A    between atoms: _453  and  _456
REMARK  174  A    between atoms: _456  and  _457
REMARK  175  A    between atoms: _457  and  _458
REMARK  176  A    between atoms: _458  and  _459
REMARK  177  A    between atoms: _459  and  _460
REMARK  178  A    between atoms: _464  and  _466
REMARK  179  A    between atoms: _466  and  _467
REMARK  180  A    between atoms: _466  and  _469
REMARK  181  A    between atoms: _469  and  _470
REMARK  182  A    between atoms: _470  and  _471
REMARK  183  A    between atoms: _473  and  _475
REMARK  184  A    between atoms: _475  and  _476
REMARK  185  A    between atoms: _475  and  _478
REMARK  186  A    between atoms: _478  and  _479
REMARK  187  A    between atoms: _483  and  _484
REMARK  188  A    between atoms: _489  and  _491
REMARK  189  A    between atoms: _491  and  _492
REMARK  190  A    between atoms: _491  and  _494
REMARK  191  A    between atoms: _494  and  _495
REMARK  192  A    between atoms: _500  and  _502
REMARK  193  A    between atoms: _502  and  _503
REMARK  194  A    between atoms: _502  and  _505
REMARK  195  A    between atoms: _505  and  _506
REMARK  196  A    between atoms: _509  and  _511
REMARK  197  A    between atoms: _511  and  _512
REMARK  198  A    between atoms: _511  and  _514
REMARK  199  A    between atoms: _517  and  _519
REMARK  200  A    between atoms: _519  and  _520
REMARK  201  A    between atoms: _519  and  _522
REMARK  202  A    between atoms: _522  and  _523
REMARK  203  A    between atoms: _523  and  _524
REMARK  204  A    between atoms: _524  and  _525
REMARK  205  A    between atoms: _525  and  _526
REMARK  206  A    between atoms: _530  and  _532
REMARK  207  A    between atoms: _532  and  _533
REMARK  208  A    between atoms: _536  and  _538
REMARK  209  A    between atoms: _538  and  _539
REMARK  210  A    between atoms: _538  and  _541
REMARK  211  A    between atoms: _541  and  _542
REMARK  212  A    between atoms: _545  and  _547
REMARK  213  A    between atoms: _547  and  _548
REMARK  214  A    between atoms: _547  and  _550
REMARK  215  A    between atoms: _550  and  _551
REMARK  216  A    between atoms: _554  and  _556
REMARK  217  A    between atoms: _556  and  _557
REMARK  218  A    between atoms: _556  and  _559
REMARK  219  A    between atoms: _559  and  _560
REMARK  220  A    between atoms: _563  and  _565
REMARK  221  A    between atoms: _565  and  _566
REMARK  222  A    between atoms: _565  and  _568
REMARK  223  A    between atoms: _568  and  _569
REMARK  224  A    between atoms: _569  and  _570
REMARK  225  A    between atoms: _573  and  _575
REMARK  226  A    between atoms: _575  and  _576
REMARK  227  A    between atoms: _575  and  _578
REMARK  228  A    between atoms: _578  and  _579
REMARK  229  A    between atoms: _579  and  _580
REMARK  230  A    between atoms: _580  and  _581
REMARK  231  A    between atoms: _581  and  _582
REMARK  232  A    between atoms: _586  and  _588
REMARK  233  A    between atoms: _588  and  _589
REMARK  234  A    between atoms: _588  and  _591
REMARK  235  A    between atoms: _591  and  _592
REMARK                            x       y       z     vdW  Elec       q    Type
REMARK                         _______ _______ _______ _____ _____    ______ ____
ROOT
ATOM      1  O   HOH     1      10.481   8.418  21.644  0.00  0.00    +0.000 OA
ENDROOT
TORSDOF 0
REMARK  Name = ../refined-set-2016/2gzl/2gzl_pocket.pdb
REMARK  235 active torsions:
REMARK  status: ('A' for Active; 'I' for Inactive)
REMARK    1  A    between atoms: _1  and  _3
REMARK    2  A    between atoms: _3  and  _4
REMARK    3  A    between atoms: _3  and  _6
REMARK    4  A    between atoms: _6  and  _7
REMARK    5  A    between atoms: _13  and  _15
REMARK    6  A    between atoms: _24  and  _27
REMARK    7  A    between atoms: _32  and  _33
REMARK    8  A    between atoms: _41  and  _43
REMARK    9  A    between atoms: _43  and  _44
REMARK   10  A    between atoms: _43  and  _46
REMARK   11  A    between atoms: _46  and  _47
REMARK   12  A    between atoms: _50  and  _52
REMARK   13  A    between atoms: _52  and  _53
REMARK   14  A    between atoms: _56  and  _58
REMARK   15  A    between atoms: _58  and  _59
REMARK   16  A    between atoms: _58  and  _61
REMARK   17  A    between atoms: _61  and  _62
REMARK   18  A    between atoms: _67  and  _69
REMARK   19  A    between atoms: _69  and  _70
REMARK   20  A    between atoms: _69  and  _72
REMARK   21  A    between atoms: _72  and  _73
REMARK   22  A    between atoms: _75  and  _77
REMARK   23  A    between atoms: _77  and  _78
REMARK   24  A    between atoms: _77  and  _80
REMARK   25  A    between atoms: _80  and  _81
REMARK   26  A    between atoms: _84  and  _86
REMARK   27  A    between atoms: _86  and  _87
REMARK   28  A    between atoms: _89  and  _91
REMARK   29  A    between atoms: _91  and  _92
REMARK   30  A    between atoms: _91  and  _94
REMARK   31  A    between atoms: _94  and  _95
REMARK   32  A    between atoms: _98  and  _100
REMARK   33  A    between atoms: _100  and  _101
REMARK   34  A    between atoms: _100  and  _103
REMARK   35  A    between atoms: _106  and  _108
REMARK   36  A    between atoms: _108  and  _109
REMARK   37  A    between atoms: _108  and  _111
REMARK   38  A    between atoms: _111  and  _112
REMARK   39  A    between atoms: _113  and  ZN_595
REMARK   40  A    between atoms: _117  and  _119
REMARK   41  A    between atoms: _119  and  _120
REMARK   42  A    between atoms: _123  and  _125
REMARK   43  A    between atoms: _125  and  _126
REMARK   44  A    between atoms: _125  and  _128
REMARK   45  A    between atoms: _128  and  _129
REMARK   46  A    between atoms: _132  and  _134
REMARK   47  A    between atoms: _134  and  _135
REMARK   48  A    between atoms: _134  and  _137
REMARK   49  A    between atoms: _137  and  _138
REMARK   50  A    between atoms: _141  and  _143
REMARK   51  A    between atoms: _143  and  _144
REMARK   52  A    between atoms: _146  and  _148
REMARK   53  A    between atoms: _148  and  _149
REMARK   54  A    between atoms: _148  and  _151
REMARK   55  A    between atoms: _151  and  _152
REMARK   56  A    between atoms: _155  and  _157
REMARK   57  A    between atoms: _157  and  _158
REMARK   58  A    between atoms: _157  and  _160
REMARK   59  A    between atoms: _160  and  _161
REMARK   60  A    between atoms: _164  and  _166
REMARK   61  A    between atoms: _166  and  _167
REMARK   62  A    between atoms: _169  and  _171
REMARK   63  A    between atoms: _171  and  _172
REMARK   64  A    between atoms: _171  and  _174
REMARK   65  A    between atoms: _174  and  _175
REMARK   66  A    between atoms: _175  and  _176
REMARK   67  A    between atoms: _176  and  _177
REMARK   68  A    between atoms: _177  and  _178
REMARK   69  A    between atoms: _182  and  _184
REMARK   70  A    between atoms: _184  and  _185
REMARK   71  A    between atoms: _184  and  _187
REMARK   72  A    between atoms: _187  and  _188
REMARK   73  A    between atoms: _191  and  _193
REMARK   74  A    between atoms: _193  and  _194
REMARK   75  A    between atoms: _193  and  _196
REMARK   76  A    between atoms: _196  and  _197
REMARK   77  A    between atoms: _204  and  _205
REMARK   78  A    between atoms: _210  and  _212
REMARK   79  A    between atoms: _212  and  _213
REMARK   80  A    between atoms: _212  and  _215
REMARK   81  A    between atoms: _215  and  _216
REMARK   82  A    between atoms: _219  and  _221
REMARK   83  A    between atoms: _221  and  _222
REMARK   84  A    between atoms: _221  and  _224
REMARK   85  A    between atoms: _224  and  _225
REMARK   86  A    between atoms: _228  and  _230
REMARK   87  A    between atoms: _230  and  _231
REMARK   88  A    between atoms: _230  and  _233
REMARK   89  A    between atoms: _233  and  _234
REMARK   90  A    between atoms: _238  and  _239
REMARK   91  A    between atoms: _244  and  _246
REMARK   92  A    between atoms: _246  and  _247
REMARK   93  A    between atoms: _250  and  _252
REMARK   94  A    between atoms: _252  and  _253
REMARK   95  A    between atoms: _252  and  _255
REMARK   96  A    between atoms: _255  and  _256
REMARK   97  A    between atoms: _262  and  _264
REMARK   98  A    between atoms: _264  and  _265
REMARK   99  A    between atoms: _267  and  _269
REMARK  100  A    between atoms: _269  and  _270
REMARK  101  A    between atoms: _273  and  _275
REMARK  102  A    between atoms: _275  and  _276
REMARK  103  A    between atoms: _275  and  _278
REMARK  104  A    between atoms: _278  and  _279
REMARK  105  A    between atoms: _282  and  _284
REMARK  106  A    between atoms: _284  and  _285
REMARK  107  A    between atoms: _284  and  _287
REMARK  108  A    between atoms: _287  and  _288
REMARK  109  A    between atoms: _290  and  _292
REMARK  110  A    between atoms: _292  and  _293
REMARK  111  A    between atoms: _292  and  _295
REMARK  112  A    between atoms: _295  and  _296
REMARK  113  A    between atoms: _296  and  _297
REMARK  114  A    between atoms: _297  and  _298
REMARK  115  A    between atoms: _307  and  _309
REMARK  116  A    between atoms: _309  and  _310
REMARK  117  A    between atoms: _309  and  _312
REMARK  118  A    between atoms: _312  and  _313
REMARK  119  A    between atoms: _313  and  _314
REMARK  120  A    between atoms: _317  and  _319
REMARK  121  A    between atoms: _319  and  _320
REMARK  122  A    between atoms: _319  and  _322
REMARK  123  A    between atoms: _322  and  _323
REMARK  124  A    between atoms: _326  and  _328
REMARK  125  A    between atoms: _328  and  _329
REMARK  126  A    between atoms: _328  and  _331
REMARK  127  A    between atoms: _331  and  _332
REMARK  128  A    between atoms: _335  and  _337
REMARK  129  A    between atoms: _337  and  _338
REMARK  130  A    between atoms: _337  and  _340
REMARK  131  A    between atoms: _340  and  _341
REMARK  132  A    between atoms: _341  and  _342
REMARK  133  A    between atoms: _342  and  _343
REMARK  134  A    between atoms: _352  and  _354
REMARK  135  A    between atoms: _354  and  _355
REMARK  136  A    between atoms: _354  and  _357
REMARK  137  A    between atoms: _357  and  _358
REMARK  138  A    between atoms: _358  and  _359
REMARK  139  A    between atoms: _362  and  _364
REMARK  140  A    between atoms: _364  and  _365
REMARK  141  A    between atoms: _368  and  _370
REMARK  142  A    between atoms: _370  and  _371
REMARK  143  A    between atoms: _370  and  _373
REMARK  144  A    between atoms: _373  and  _374
REMARK  145  A    between atoms: _374  and  _375
REMARK  146  A    between atoms: _375  and  _376
REMARK  147  A    between atoms: _385  and  _387
REMARK  148  A    between atoms: _387  and  _388
REMARK  149  A    between atoms: _387  and  _390
REMARK  150  A    between atoms: _390  and  _391
REMARK  151  A    between atoms: _391  and  _392
REMARK  152  A    between atoms: _392  and  _393
REMARK  153  A    between atoms: _402  and  _404
REMARK  154  A    between atoms: _404  and  _405
REMARK  155  A    between atoms: _404  and  _407
REMARK  156  A    between atoms: _407  and  _408
REMARK  157  A    between atoms: _411  and  _413
REMARK  158  A    between atoms: _413  and  _414
REMARK  159  A    between atoms: _413  and  _416
REMARK  160  A    between atoms: _416  and  _417
REMARK  161  A    between atoms: _420  and  _422
REMARK  162  A    between atoms: _422  and  _423
REMARK  163  A    between atoms: _426  and  _428
REMARK  164  A    between atoms: _428  and  _429
REMARK  165  A    between atoms: _428  and  _431
REMARK  166  A    between atoms: _431  and  _432
REMARK  167  A    between atoms: _432  and  _433
REMARK  168  A    between atoms: _438  and  _440
REMARK  169  A    between atoms: _440  and  _441
REMARK  170  A    between atoms: _445  and  _446
REMARK  171  A    between atoms: _451  and  _453
REMARK  172  A    between atoms: _453  and  _454
REMARK  173  A    between atoms: _453  and  _456
REMARK  174  A    between atoms: _456  and  _457
REMARK  175  A    between atoms: _457  and  _458
REMARK  176  A    between atoms: _458  and  _459
REMARK  177  A    between atoms: _459  and  _460
REMARK  178  A    between atoms: _464  and  _466
REMARK  179  A    between atoms: _466  and  _467
REMARK  180  A    between atoms: _466  and  _469
REMARK  181  A    between atoms: _469  and  _470
REMARK  182  A    between atoms: _470  and  _471
REMARK  183  A    between atoms: _473  and  _475
REMARK  184  A    between atoms: _475  and  _476
REMARK  185  A    between atoms: _475  and  _478
REMARK  186  A    between atoms: _478  and  _479
REMARK  187  A    between atoms: _483  and  _484
REMARK  188  A    between atoms: _489  and  _491
REMARK  189  A    between atoms: _491  and  _492
REMARK  190  A    between atoms: _491  and  _494
REMARK  191  A    between atoms: _494  and  _495
REMARK  192  A    between atoms: _500  and  _502
REMARK  193  A    between atoms: _502  and  _503
REMARK  194  A    between atoms: _502  and  _505
REMARK  195  A    between atoms: _505  and  _506
REMARK  196  A    between atoms: _509  and  _511
REMARK  197  A    between atoms: _511  and  _512
REMARK  198  A    between atoms: _511  and  _514
REMARK  199  A    between atoms: _517  and  _519
REMARK  200  A    between atoms: _519  and  _520
REMARK  201  A    between atoms: _519  and  _522
REMARK  202  A    between atoms: _522  and  _523
REMARK  203  A    between atoms: _523  and  _524
REMARK  204  A    between atoms: _524  and  _525
REMARK  205  A    between atoms: _525  and  _526
REMARK  206  A    between atoms: _530  and  _532
REMARK  207  A    between atoms: _532  and  _533
REMARK  208  A    between atoms: _536  and  _538
REMARK  209  A    between atoms: _538  and  _539
REMARK  210  A    between atoms: _538  and  _541
REMARK  211  A    between atoms: _541  and  _542
REMARK  212  A    between atoms: _545  and  _547
REMARK  213  A    between atoms: _547  and  _548
REMARK  214  A    between atoms: _547  and  _550
REMARK  215  A    between atoms: _550  and  _551
REMARK  216  A    between atoms: _554  and  _556
REMARK  217  A    between atoms: _556  and  _557
REMARK  218  A    between atoms: _556  and  _559
REMARK  219  A    between atoms: _559  and  _560
REMARK  220  A    between atoms: _563  and  _565
REMARK  221  A    between atoms: _565  and  _566
REMARK  222  A    between atoms: _565  and  _568
REMARK  223  A    between atoms: _568  and  _569
REMARK  224  A    between atoms: _569  and  _570
REMARK  225  A    between atoms: _573  and  _575
REMARK  226  A    between atoms: _575  and  _576
REMARK  227  A    between atoms: _575  and  _578
REMARK  228  A    between atoms: _578  and  _579
REMARK  229  A    between atoms: _579  and  _580
REMARK  230  A    between atoms: _580  and  _581
REMARK  231  A    between atoms: _581  and  _582
REMARK  232  A    between atoms: _586  and  _588
REMARK  233  A    between atoms: _588  and  _589
REMARK  234  A    between atoms: _588  and  _591
REMARK  235  A    between atoms: _591  and  _592
REMARK                            x       y       z     vdW  Elec       q    Type
REMARK                         _______ _______ _______ _____ _____    ______ ____
ROOT
ATOM      1  O   HOH     1      12.582   2.267  21.747  0.00  0.00    +0.000 OA
ENDROOT
TORSDOF 0
REMARK  Name = ../refined-set-2016/2gzl/2gzl_pocket.pdb
REMARK  235 active torsions:
REMARK  status: ('A' for Active; 'I' for Inactive)
REMARK    1  A    between atoms: _1  and  _3
REMARK    2  A    between atoms: _3  and  _4
REMARK    3  A    between atoms: _3  and  _6
REMARK    4  A    between atoms: _6  and  _7
REMARK    5  A    between atoms: _13  and  _15
REMARK    6  A    between atoms: _24  and  _27
REMARK    7  A    between atoms: _32  and  _33
REMARK    8  A    between atoms: _41  and  _43
REMARK    9  A    between atoms: _43  and  _44
REMARK   10  A    between atoms: _43  and  _46
REMARK   11  A    between atoms: _46  and  _47
REMARK   12  A    between atoms: _50  and  _52
REMARK   13  A    between atoms: _52  and  _53
REMARK   14  A    between atoms: _56  and  _58
REMARK   15  A    between atoms: _58  and  _59
REMARK   16  A    between atoms: _58  and  _61
REMARK   17  A    between atoms: _61  and  _62
REMARK   18  A    between atoms: _67  and  _69
REMARK   19  A    between atoms: _69  and  _70
REMARK   20  A    between atoms: _69  and  _72
REMARK   21  A    between atoms: _72  and  _73
REMARK   22  A    between atoms: _75  and  _77
REMARK   23  A    between atoms: _77  and  _78
REMARK   24  A    between atoms: _77  and  _80
REMARK   25  A    between atoms: _80  and  _81
REMARK   26  A    between atoms: _84  and  _86
REMARK   27  A    between atoms: _86  and  _87
REMARK   28  A    between atoms: _89  and  _91
REMARK   29  A    between atoms: _91  and  _92
REMARK   30  A    between atoms: _91  and  _94
REMARK   31  A    between atoms: _94  and  _95
REMARK   32  A    between atoms: _98  and  _100
REMARK   33  A    between atoms: _100  and  _101
REMARK   34  A    between atoms: _100  and  _103
REMARK   35  A    between atoms: _106  and  _108
REMARK   36  A    between atoms: _108  and  _109
REMARK   37  A    between atoms: _108  and  _111
REMARK   38  A    between atoms: _111  and  _112
REMARK   39  A    between atoms: _113  and  ZN_595
REMARK   40  A    between atoms: _117  and  _119
REMARK   41  A    between atoms: _119  and  _120
REMARK   42  A    between atoms: _123  and  _125
REMARK   43  A    between atoms: _125  and  _126
REMARK   44  A    between atoms: _125  and  _128
REMARK   45  A    between atoms: _128  and  _129
REMARK   46  A    between atoms: _132  and  _134
REMARK   47  A    between atoms: _134  and  _135
REMARK   48  A    between atoms: _134  and  _137
REMARK   49  A    between atoms: _137  and  _138
REMARK   50  A    between atoms: _141  and  _143
REMARK   51  A    between atoms: _143  and  _144
REMARK   52  A    between atoms: _146  and  _148
REMARK   53  A    between atoms: _148  and  _149
REMARK   54  A    between atoms: _148  and  _151
REMARK   55  A    between atoms: _151  and  _152
REMARK   56  A    between atoms: _155  and  _157
REMARK   57  A    between atoms: _157  and  _158
REMARK   58  A    between atoms: _157  and  _160
REMARK   59  A    between atoms: _160  and  _161
REMARK   60  A    between atoms: _164  and  _166
REMARK   61  A    between atoms: _166  and  _167
REMARK   62  A    between atoms: _169  and  _171
REMARK   63  A    between atoms: _171  and  _172
REMARK   64  A    between atoms: _171  and  _174
REMARK   65  A    between atoms: _174  and  _175
REMARK   66  A    between atoms: _175  and  _176
REMARK   67  A    between atoms: _176  and  _177
REMARK   68  A    between atoms: _177  and  _178
REMARK   69  A    between atoms: _182  and  _184
REMARK   70  A    between atoms: _184  and  _185
REMARK   71  A    between atoms: _184  and  _187
REMARK   72  A    between atoms: _187  and  _188
REMARK   73  A    between atoms: _191  and  _193
REMARK   74  A    between atoms: _193  and  _194
REMARK   75  A    between atoms: _193  and  _196
REMARK   76  A    between atoms: _196  and  _197
REMARK   77  A    between atoms: _204  and  _205
REMARK   78  A    between atoms: _210  and  _212
REMARK   79  A    between atoms: _212  and  _213
REMARK   80  A    between atoms: _212  and  _215
REMARK   81  A    between atoms: _215  and  _216
REMARK   82  A    between atoms: _219  and  _221
REMARK   83  A    between atoms: _221  and  _222
REMARK   84  A    between atoms: _221  and  _224
REMARK   85  A    between atoms: _224  and  _225
REMARK   86  A    between atoms: _228  and  _230
REMARK   87  A    between atoms: _230  and  _231
REMARK   88  A    between atoms: _230  and  _233
REMARK   89  A    between atoms: _233  and  _234
REMARK   90  A    between atoms: _238  and  _239
REMARK   91  A    between atoms: _244  and  _246
REMARK   92  A    between atoms: _246  and  _247
REMARK   93  A    between atoms: _250  and  _252
REMARK   94  A    between atoms: _252  and  _253
REMARK   95  A    between atoms: _252  and  _255
REMARK   96  A    between atoms: _255  and  _256
REMARK   97  A    between atoms: _262  and  _264
REMARK   98  A    between atoms: _264  and  _265
REMARK   99  A    between atoms: _267  and  _269
REMARK  100  A    between atoms: _269  and  _270
REMARK  101  A    between atoms: _273  and  _275
REMARK  102  A    between atoms: _275  and  _276
REMARK  103  A    between atoms: _275  and  _278
REMARK  104  A    between atoms: _278  and  _279
REMARK  105  A    between atoms: _282  and  _284
REMARK  106  A    between atoms: _284  and  _285
REMARK  107  A    between atoms: _284  and  _287
REMARK  108  A    between atoms: _287  and  _288
REMARK  109  A    between atoms: _290  and  _292
REMARK  110  A    between atoms: _292  and  _293
REMARK  111  A    between atoms: _292  and  _295
REMARK  112  A    between atoms: _295  and  _296
REMARK  113  A    between atoms: _296  and  _297
REMARK  114  A    between atoms: _297  and  _298
REMARK  115  A    between atoms: _307  and  _309
REMARK  116  A    between atoms: _309  and  _310
REMARK  117  A    between atoms: _309  and  _312
REMARK  118  A    between atoms: _312  and  _313
REMARK  119  A    between atoms: _313  and  _314
REMARK  120  A    between atoms: _317  and  _319
REMARK  121  A    between atoms: _319  and  _320
REMARK  122  A    between atoms: _319  and  _322
REMARK  123  A    between atoms: _322  and  _323
REMARK  124  A    between atoms: _326  and  _328
REMARK  125  A    between atoms: _328  and  _329
REMARK  126  A    between atoms: _328  and  _331
REMARK  127  A    between atoms: _331  and  _332
REMARK  128  A    between atoms: _335  and  _337
REMARK  129  A    between atoms: _337  and  _338
REMARK  130  A    between atoms: _337  and  _340
REMARK  131  A    between atoms: _340  and  _341
REMARK  132  A    between atoms: _341  and  _342
REMARK  133  A    between atoms: _342  and  _343
REMARK  134  A    between atoms: _352  and  _354
REMARK  135  A    between atoms: _354  and  _355
REMARK  136  A    between atoms: _354  and  _357
REMARK  137  A    between atoms: _357  and  _358
REMARK  138  A    between atoms: _358  and  _359
REMARK  139  A    between atoms: _362  and  _364
REMARK  140  A    between atoms: _364  and  _365
REMARK  141  A    between atoms: _368  and  _370
REMARK  142  A    between atoms: _370  and  _371
REMARK  143  A    between atoms: _370  and  _373
REMARK  144  A    between atoms: _373  and  _374
REMARK  145  A    between atoms: _374  and  _375
REMARK  146  A    between atoms: _375  and  _376
REMARK  147  A    between atoms: _385  and  _387
REMARK  148  A    between atoms: _387  and  _388
REMARK  149  A    between atoms: _387  and  _390
REMARK  150  A    between atoms: _390  and  _391
REMARK  151  A    between atoms: _391  and  _392
REMARK  152  A    between atoms: _392  and  _393
REMARK  153  A    between atoms: _402  and  _404
REMARK  154  A    between atoms: _404  and  _405
REMARK  155  A    between atoms: _404  and  _407
REMARK  156  A    between atoms: _407  and  _408
REMARK  157  A    between atoms: _411  and  _413
REMARK  158  A    between atoms: _413  and  _414
REMARK  159  A    between atoms: _413  and  _416
REMARK  160  A    between atoms: _416  and  _417
REMARK  161  A    between atoms: _420  and  _422
REMARK  162  A    between atoms: _422  and  _423
REMARK  163  A    between atoms: _426  and  _428
REMARK  164  A    between atoms: _428  and  _429
REMARK  165  A    between atoms: _428  and  _431
REMARK  166  A    between atoms: _431  and  _432
REMARK  167  A    between atoms: _432  and  _433
REMARK  168  A    between atoms: _438  and  _440
REMARK  169  A    between atoms: _440  and  _441
REMARK  170  A    between atoms: _445  and  _446
REMARK  171  A    between atoms: _451  and  _453
REMARK  172  A    between atoms: _453  and  _454
REMARK  173  A    between atoms: _453  and  _456
REMARK  174  A    between atoms: _456  and  _457
REMARK  175  A    between atoms: _457  and  _458
REMARK  176  A    between atoms: _458  and  _459
REMARK  177  A    between atoms: _459  and  _460
REMARK  178  A    between atoms: _464  and  _466
REMARK  179  A    between atoms: _466  and  _467
REMARK  180  A    between atoms: _466  and  _469
REMARK  181  A    between atoms: _469  and  _470
REMARK  182  A    between atoms: _470  and  _471
REMARK  183  A    between atoms: _473  and  _475
REMARK  184  A    between atoms: _475  and  _476
REMARK  185  A    between atoms: _475  and  _478
REMARK  186  A    between atoms: _478  and  _479
REMARK  187  A    between atoms: _483  and  _484
REMARK  188  A    between atoms: _489  and  _491
REMARK  189  A    between atoms: _491  and  _492
REMARK  190  A    between atoms: _491  and  _494
REMARK  191  A    between atoms: _494  and  _495
REMARK  192  A    between atoms: _500  and  _502
REMARK  193  A    between atoms: _502  and  _503
REMARK  194  A    between atoms: _502  and  _505
REMARK  195  A    between atoms: _505  and  _506
REMARK  196  A    between atoms: _509  and  _511
REMARK  197  A    between atoms: _511  and  _512
REMARK  198  A    between atoms: _511  and  _514
REMARK  199  A    between atoms: _517  and  _519
REMARK  200  A    between atoms: _519  and  _520
REMARK  201  A    between atoms: _519  and  _522
REMARK  202  A    between atoms: _522  and  _523
REMARK  203  A    between atoms: _523  and  _524
REMARK  204  A    between atoms: _524  and  _525
REMARK  205  A    between atoms: _525  and  _526
REMARK  206  A    between atoms: _530  and  _532
REMARK  207  A    between atoms: _532  and  _533
REMARK  208  A    between atoms: _536  and  _538
REMARK  209  A    between atoms: _538  and  _539
REMARK  210  A    between atoms: _538  and  _541
REMARK  211  A    between atoms: _541  and  _542
REMARK  212  A    between atoms: _545  and  _547
REMARK  213  A    between atoms: _547  and  _548
REMARK  214  A    between atoms: _547  and  _550
REMARK  215  A    between atoms: _550  and  _551
REMARK  216  A    between atoms: _554  and  _556
REMARK  217  A    between atoms: _556  and  _557
REMARK  218  A    between atoms: _556  and  _559
REMARK  219  A    between atoms: _559  and  _560
REMARK  220  A    between atoms: _563  and  _565
REMARK  221  A    between atoms: _565  and  _566
REMARK  222  A    between atoms: _565  and  _568
REMARK  223  A    between atoms: _568  and  _569
REMARK  224  A    between atoms: _569  and  _570
REMARK  225  A    between atoms: _573  and  _575
REMARK  226  A    between atoms: _575  and  _576
REMARK  227  A    between atoms: _575  and  _578
REMARK  228  A    between atoms: _578  and  _579
REMARK  229  A    between atoms: _579  and  _580
REMARK  230  A    between atoms: _580  and  _581
REMARK  231  A    between atoms: _581  and  _582
REMARK  232  A    between atoms: _586  and  _588
REMARK  233  A    between atoms: _588  and  _589
REMARK  234  A    between atoms: _588  and  _591
REMARK  235  A    between atoms: _591  and  _592
REMARK                            x       y       z     vdW  Elec       q    Type
REMARK                         _______ _______ _______ _____ _____    ______ ____
ROOT
ATOM      1  O   HOH     1       5.222   8.513  25.708  0.00  0.00    +0.000 OA
ENDROOT
TORSDOF 0
REMARK  Name = ../refined-set-2016/2gzl/2gzl_pocket.pdb
REMARK  235 active torsions:
REMARK  status: ('A' for Active; 'I' for Inactive)
REMARK    1  A    between atoms: _1  and  _3
REMARK    2  A    between atoms: _3  and  _4
REMARK    3  A    between atoms: _3  and  _6
REMARK    4  A    between atoms: _6  and  _7
REMARK    5  A    between atoms: _13  and  _15
REMARK    6  A    between atoms: _24  and  _27
REMARK    7  A    between atoms: _32  and  _33
REMARK    8  A    between atoms: _41  and  _43
REMARK    9  A    between atoms: _43  and  _44
REMARK   10  A    between atoms: _43  and  _46
REMARK   11  A    between atoms: _46  and  _47
REMARK   12  A    between atoms: _50  and  _52
REMARK   13  A    between atoms: _52  and  _53
REMARK   14  A    between atoms: _56  and  _58
REMARK   15  A    between atoms: _58  and  _59
REMARK   16  A    between atoms: _58  and  _61
REMARK   17  A    between atoms: _61  and  _62
REMARK   18  A    between atoms: _67  and  _69
REMARK   19  A    between atoms: _69  and  _70
REMARK   20  A    between atoms: _69  and  _72
REMARK   21  A    between atoms: _72  and  _73
REMARK   22  A    between atoms: _75  and  _77
REMARK   23  A    between atoms: _77  and  _78
REMARK   24  A    between atoms: _77  and  _80
REMARK   25  A    between atoms: _80  and  _81
REMARK   26  A    between atoms: _84  and  _86
REMARK   27  A    between atoms: _86  and  _87
REMARK   28  A    between atoms: _89  and  _91
REMARK   29  A    between atoms: _91  and  _92
REMARK   30  A    between atoms: _91  and  _94
REMARK   31  A    between atoms: _94  and  _95
REMARK   32  A    between atoms: _98  and  _100
REMARK   33  A    between atoms: _100  and  _101
REMARK   34  A    between atoms: _100  and  _103
REMARK   35  A    between atoms: _106  and  _108
REMARK   36  A    between atoms: _108  and  _109
REMARK   37  A    between atoms: _108  and  _111
REMARK   38  A    between atoms: _111  and  _112
REMARK   39  A    between atoms: _113  and  ZN_595
REMARK   40  A    between atoms: _117  and  _119
REMARK   41  A    between atoms: _119  and  _120
REMARK   42  A    between atoms: _123  and  _125
REMARK   43  A    between atoms: _125  and  _126
REMARK   44  A    between atoms: _125  and  _128
REMARK   45  A    between atoms: _128  and  _129
REMARK   46  A    between atoms: _132  and  _134
REMARK   47  A    between atoms: _134  and  _135
REMARK   48  A    between atoms: _134  and  _137
REMARK   49  A    between atoms: _137  and  _138
REMARK   50  A    between atoms: _141  and  _143
REMARK   51  A    between atoms: _143  and  _144
REMARK   52  A    between atoms: _146  and  _148
REMARK   53  A    between atoms: _148  and  _149
REMARK   54  A    between atoms: _148  and  _151
REMARK   55  A    between atoms: _151  and  _152
REMARK   56  A    between atoms: _155  and  _157
REMARK   57  A    between atoms: _157  and  _158
REMARK   58  A    between atoms: _157  and  _160
REMARK   59  A    between atoms: _160  and  _161
REMARK   60  A    between atoms: _164  and  _166
REMARK   61  A    between atoms: _166  and  _167
REMARK   62  A    between atoms: _169  and  _171
REMARK   63  A    between atoms: _171  and  _172
REMARK   64  A    between atoms: _171  and  _174
REMARK   65  A    between atoms: _174  and  _175
REMARK   66  A    between atoms: _175  and  _176
REMARK   67  A    between atoms: _176  and  _177
REMARK   68  A    between atoms: _177  and  _178
REMARK   69  A    between atoms: _182  and  _184
REMARK   70  A    between atoms: _184  and  _185
REMARK   71  A    between atoms: _184  and  _187
REMARK   72  A    between atoms: _187  and  _188
REMARK   73  A    between atoms: _191  and  _193
REMARK   74  A    between atoms: _193  and  _194
REMARK   75  A    between atoms: _193  and  _196
REMARK   76  A    between atoms: _196  and  _197
REMARK   77  A    between atoms: _204  and  _205
REMARK   78  A    between atoms: _210  and  _212
REMARK   79  A    between atoms: _212  and  _213
REMARK   80  A    between atoms: _212  and  _215
REMARK   81  A    between atoms: _215  and  _216
REMARK   82  A    between atoms: _219  and  _221
REMARK   83  A    between atoms: _221  and  _222
REMARK   84  A    between atoms: _221  and  _224
REMARK   85  A    between atoms: _224  and  _225
REMARK   86  A    between atoms: _228  and  _230
REMARK   87  A    between atoms: _230  and  _231
REMARK   88  A    between atoms: _230  and  _233
REMARK   89  A    between atoms: _233  and  _234
REMARK   90  A    between atoms: _238  and  _239
REMARK   91  A    between atoms: _244  and  _246
REMARK   92  A    between atoms: _246  and  _247
REMARK   93  A    between atoms: _250  and  _252
REMARK   94  A    between atoms: _252  and  _253
REMARK   95  A    between atoms: _252  and  _255
REMARK   96  A    between atoms: _255  and  _256
REMARK   97  A    between atoms: _262  and  _264
REMARK   98  A    between atoms: _264  and  _265
REMARK   99  A    between atoms: _267  and  _269
REMARK  100  A    between atoms: _269  and  _270
REMARK  101  A    between atoms: _273  and  _275
REMARK  102  A    between atoms: _275  and  _276
REMARK  103  A    between atoms: _275  and  _278
REMARK  104  A    between atoms: _278  and  _279
REMARK  105  A    between atoms: _282  and  _284
REMARK  106  A    between atoms: _284  and  _285
REMARK  107  A    between atoms: _284  and  _287
REMARK  108  A    between atoms: _287  and  _288
REMARK  109  A    between atoms: _290  and  _292
REMARK  110  A    between atoms: _292  and  _293
REMARK  111  A    between atoms: _292  and  _295
REMARK  112  A    between atoms: _295  and  _296
REMARK  113  A    between atoms: _296  and  _297
REMARK  114  A    between atoms: _297  and  _298
REMARK  115  A    between atoms: _307  and  _309
REMARK  116  A    between atoms: _309  and  _310
REMARK  117  A    between atoms: _309  and  _312
REMARK  118  A    between atoms: _312  and  _313
REMARK  119  A    between atoms: _313  and  _314
REMARK  120  A    between atoms: _317  and  _319
REMARK  121  A    between atoms: _319  and  _320
REMARK  122  A    between atoms: _319  and  _322
REMARK  123  A    between atoms: _322  and  _323
REMARK  124  A    between atoms: _326  and  _328
REMARK  125  A    between atoms: _328  and  _329
REMARK  126  A    between atoms: _328  and  _331
REMARK  127  A    between atoms: _331  and  _332
REMARK  128  A    between atoms: _335  and  _337
REMARK  129  A    between atoms: _337  and  _338
REMARK  130  A    between atoms: _337  and  _340
REMARK  131  A    between atoms: _340  and  _341
REMARK  132  A    between atoms: _341  and  _342
REMARK  133  A    between atoms: _342  and  _343
REMARK  134  A    between atoms: _352  and  _354
REMARK  135  A    between atoms: _354  and  _355
REMARK  136  A    between atoms: _354  and  _357
REMARK  137  A    between atoms: _357  and  _358
REMARK  138  A    between atoms: _358  and  _359
REMARK  139  A    between atoms: _362  and  _364
REMARK  140  A    between atoms: _364  and  _365
REMARK  141  A    between atoms: _368  and  _370
REMARK  142  A    between atoms: _370  and  _371
REMARK  143  A    between atoms: _370  and  _373
REMARK  144  A    between atoms: _373  and  _374
REMARK  145  A    between atoms: _374  and  _375
REMARK  146  A    between atoms: _375  and  _376
REMARK  147  A    between atoms: _385  and  _387
REMARK  148  A    between atoms: _387  and  _388
REMARK  149  A    between atoms: _387  and  _390
REMARK  150  A    between atoms: _390  and  _391
REMARK  151  A    between atoms: _391  and  _392
REMARK  152  A    between atoms: _392  and  _393
REMARK  153  A    between atoms: _402  and  _404
REMARK  154  A    between atoms: _404  and  _405
REMARK  155  A    between atoms: _404  and  _407
REMARK  156  A    between atoms: _407  and  _408
REMARK  157  A    between atoms: _411  and  _413
REMARK  158  A    between atoms: _413  and  _414
REMARK  159  A    between atoms: _413  and  _416
REMARK  160  A    between atoms: _416  and  _417
REMARK  161  A    between atoms: _420  and  _422
REMARK  162  A    between atoms: _422  and  _423
REMARK  163  A    between atoms: _426  and  _428
REMARK  164  A    between atoms: _428  and  _429
REMARK  165  A    between atoms: _428  and  _431
REMARK  166  A    between atoms: _431  and  _432
REMARK  167  A    between atoms: _432  and  _433
REMARK  168  A    between atoms: _438  and  _440
REMARK  169  A    between atoms: _440  and  _441
REMARK  170  A    between atoms: _445  and  _446
REMARK  171  A    between atoms: _451  and  _453
REMARK  172  A    between atoms: _453  and  _454
REMARK  173  A    between atoms: _453  and  _456
REMARK  174  A    between atoms: _456  and  _457
REMARK  175  A    between atoms: _457  and  _458
REMARK  176  A    between atoms: _458  and  _459
REMARK  177  A    between atoms: _459  and  _460
REMARK  178  A    between atoms: _464  and  _466
REMARK  179  A    between atoms: _466  and  _467
REMARK  180  A    between atoms: _466  and  _469
REMARK  181  A    between atoms: _469  and  _470
REMARK  182  A    between atoms: _470  and  _471
REMARK  183  A    between atoms: _473  and  _475
REMARK  184  A    between atoms: _475  and  _476
REMARK  185  A    between atoms: _475  and  _478
REMARK  186  A    between atoms: _478  and  _479
REMARK  187  A    between atoms: _483  and  _484
REMARK  188  A    between atoms: _489  and  _491
REMARK  189  A    between atoms: _491  and  _492
REMARK  190  A    between atoms: _491  and  _494
REMARK  191  A    between atoms: _494  and  _495
REMARK  192  A    between atoms: _500  and  _502
REMARK  193  A    between atoms: _502  and  _503
REMARK  194  A    between atoms: _502  and  _505
REMARK  195  A    between atoms: _505  and  _506
REMARK  196  A    between atoms: _509  and  _511
REMARK  197  A    between atoms: _511  and  _512
REMARK  198  A    between atoms: _511  and  _514
REMARK  199  A    between atoms: _517  and  _519
REMARK  200  A    between atoms: _519  and  _520
REMARK  201  A    between atoms: _519  and  _522
REMARK  202  A    between atoms: _522  and  _523
REMARK  203  A    between atoms: _523  and  _524
REMARK  204  A    between atoms: _524  and  _525
REMARK  205  A    between atoms: _525  and  _526
REMARK  206  A    between atoms: _530  and  _532
REMARK  207  A    between atoms: _532  and  _533
REMARK  208  A    between atoms: _536  and  _538
REMARK  209  A    between atoms: _538  and  _539
REMARK  210  A    between atoms: _538  and  _541
REMARK  211  A    between atoms: _541  and  _542
REMARK  212  A    between atoms: _545  and  _547
REMARK  213  A    between atoms: _547  and  _548
REMARK  214  A    between atoms: _547  and  _550
REMARK  215  A    between atoms: _550  and  _551
REMARK  216  A    between atoms: _554  and  _556
REMARK  217  A    between atoms: _556  and  _557
REMARK  218  A    between atoms: _556  and  _559
REMARK  219  A    between atoms: _559  and  _560
REMARK  220  A    between atoms: _563  and  _565
REMARK  221  A    between atoms: _565  and  _566
REMARK  222  A    between atoms: _565  and  _568
REMARK  223  A    between atoms: _568  and  _569
REMARK  224  A    between atoms: _569  and  _570
REMARK  225  A    between atoms: _573  and  _575
REMARK  226  A    between atoms: _575  and  _576
REMARK  227  A    between atoms: _575  and  _578
REMARK  228  A    between atoms: _578  and  _579
REMARK  229  A    between atoms: _579  and  _580
REMARK  230  A    between atoms: _580  and  _581
REMARK  231  A    between atoms: _581  and  _582
REMARK  232  A    between atoms: _586  and  _588
REMARK  233  A    between atoms: _588  and  _589
REMARK  234  A    between atoms: _588  and  _591
REMARK  235  A    between atoms: _591  and  _592
REMARK                            x       y       z     vdW  Elec       q    Type
REMARK                         _______ _______ _______ _____ _____    ______ ____
ROOT
ATOM      1  O   HOH     1      17.264   8.301  38.256  0.00  0.00    +0.000 OA
ENDROOT
TORSDOF 0
REMARK  Name = ../refined-set-2016/2gzl/2gzl_pocket.pdb
REMARK  235 active torsions:
REMARK  status: ('A' for Active; 'I' for Inactive)
REMARK    1  A    between atoms: _1  and  _3
REMARK    2  A    between atoms: _3  and  _4
REMARK    3  A    between atoms: _3  and  _6
REMARK    4  A    between atoms: _6  and  _7
REMARK    5  A    between atoms: _13  and  _15
REMARK    6  A    between atoms: _24  and  _27
REMARK    7  A    between atoms: _32  and  _33
REMARK    8  A    between atoms: _41  and  _43
REMARK    9  A    between atoms: _43  and  _44
REMARK   10  A    between atoms: _43  and  _46
REMARK   11  A    between atoms: _46  and  _47
REMARK   12  A    between atoms: _50  and  _52
REMARK   13  A    between atoms: _52  and  _53
REMARK   14  A    between atoms: _56  and  _58
REMARK   15  A    between atoms: _58  and  _59
REMARK   16  A    between atoms: _58  and  _61
REMARK   17  A    between atoms: _61  and  _62
REMARK   18  A    between atoms: _67  and  _69
REMARK   19  A    between atoms: _69  and  _70
REMARK   20  A    between atoms: _69  and  _72
REMARK   21  A    between atoms: _72  and  _73
REMARK   22  A    between atoms: _75  and  _77
REMARK   23  A    between atoms: _77  and  _78
REMARK   24  A    between atoms: _77  and  _80
REMARK   25  A    between atoms: _80  and  _81
REMARK   26  A    between atoms: _84  and  _86
REMARK   27  A    between atoms: _86  and  _87
REMARK   28  A    between atoms: _89  and  _91
REMARK   29  A    between atoms: _91  and  _92
REMARK   30  A    between atoms: _91  and  _94
REMARK   31  A    between atoms: _94  and  _95
REMARK   32  A    between atoms: _98  and  _100
REMARK   33  A    between atoms: _100  and  _101
REMARK   34  A    between atoms: _100  and  _103
REMARK   35  A    between atoms: _106  and  _108
REMARK   36  A    between atoms: _108  and  _109
REMARK   37  A    between atoms: _108  and  _111
REMARK   38  A    between atoms: _111  and  _112
REMARK   39  A    between atoms: _113  and  ZN_595
REMARK   40  A    between atoms: _117  and  _119
REMARK   41  A    between atoms: _119  and  _120
REMARK   42  A    between atoms: _123  and  _125
REMARK   43  A    between atoms: _125  and  _126
REMARK   44  A    between atoms: _125  and  _128
REMARK   45  A    between atoms: _128  and  _129
REMARK   46  A    between atoms: _132  and  _134
REMARK   47  A    between atoms: _134  and  _135
REMARK   48  A    between atoms: _134  and  _137
REMARK   49  A    between atoms: _137  and  _138
REMARK   50  A    between atoms: _141  and  _143
REMARK   51  A    between atoms: _143  and  _144
REMARK   52  A    between atoms: _146  and  _148
REMARK   53  A    between atoms: _148  and  _149
REMARK   54  A    between atoms: _148  and  _151
REMARK   55  A    between atoms: _151  and  _152
REMARK   56  A    between atoms: _155  and  _157
REMARK   57  A    between atoms: _157  and  _158
REMARK   58  A    between atoms: _157  and  _160
REMARK   59  A    between atoms: _160  and  _161
REMARK   60  A    between atoms: _164  and  _166
REMARK   61  A    between atoms: _166  and  _167
REMARK   62  A    between atoms: _169  and  _171
REMARK   63  A    between atoms: _171  and  _172
REMARK   64  A    between atoms: _171  and  _174
REMARK   65  A    between atoms: _174  and  _175
REMARK   66  A    between atoms: _175  and  _176
REMARK   67  A    between atoms: _176  and  _177
REMARK   68  A    between atoms: _177  and  _178
REMARK   69  A    between atoms: _182  and  _184
REMARK   70  A    between atoms: _184  and  _185
REMARK   71  A    between atoms: _184  and  _187
REMARK   72  A    between atoms: _187  and  _188
REMARK   73  A    between atoms: _191  and  _193
REMARK   74  A    between atoms: _193  and  _194
REMARK   75  A    between atoms: _193  and  _196
REMARK   76  A    between atoms: _196  and  _197
REMARK   77  A    between atoms: _204  and  _205
REMARK   78  A    between atoms: _210  and  _212
REMARK   79  A    between atoms: _212  and  _213
REMARK   80  A    between atoms: _212  and  _215
REMARK   81  A    between atoms: _215  and  _216
REMARK   82  A    between atoms: _219  and  _221
REMARK   83  A    between atoms: _221  and  _222
REMARK   84  A    between atoms: _221  and  _224
REMARK   85  A    between atoms: _224  and  _225
REMARK   86  A    between atoms: _228  and  _230
REMARK   87  A    between atoms: _230  and  _231
REMARK   88  A    between atoms: _230  and  _233
REMARK   89  A    between atoms: _233  and  _234
REMARK   90  A    between atoms: _238  and  _239
REMARK   91  A    between atoms: _244  and  _246
REMARK   92  A    between atoms: _246  and  _247
REMARK   93  A    between atoms: _250  and  _252
REMARK   94  A    between atoms: _252  and  _253
REMARK   95  A    between atoms: _252  and  _255
REMARK   96  A    between atoms: _255  and  _256
REMARK   97  A    between atoms: _262  and  _264
REMARK   98  A    between atoms: _264  and  _265
REMARK   99  A    between atoms: _267  and  _269
REMARK  100  A    between atoms: _269  and  _270
REMARK  101  A    between atoms: _273  and  _275
REMARK  102  A    between atoms: _275  and  _276
REMARK  103  A    between atoms: _275  and  _278
REMARK  104  A    between atoms: _278  and  _279
REMARK  105  A    between atoms: _282  and  _284
REMARK  106  A    between atoms: _284  and  _285
REMARK  107  A    between atoms: _284  and  _287
REMARK  108  A    between atoms: _287  and  _288
REMARK  109  A    between atoms: _290  and  _292
REMARK  110  A    between atoms: _292  and  _293
REMARK  111  A    between atoms: _292  and  _295
REMARK  112  A    between atoms: _295  and  _296
REMARK  113  A    between atoms: _296  and  _297
REMARK  114  A    between atoms: _297  and  _298
REMARK  115  A    between atoms: _307  and  _309
REMARK  116  A    between atoms: _309  and  _310
REMARK  117  A    between atoms: _309  and  _312
REMARK  118  A    between atoms: _312  and  _313
REMARK  119  A    between atoms: _313  and  _314
REMARK  120  A    between atoms: _317  and  _319
REMARK  121  A    between atoms: _319  and  _320
REMARK  122  A    between atoms: _319  and  _322
REMARK  123  A    between atoms: _322  and  _323
REMARK  124  A    between atoms: _326  and  _328
REMARK  125  A    between atoms: _328  and  _329
REMARK  126  A    between atoms: _328  and  _331
REMARK  127  A    between atoms: _331  and  _332
REMARK  128  A    between atoms: _335  and  _337
REMARK  129  A    between atoms: _337  and  _338
REMARK  130  A    between atoms: _337  and  _340
REMARK  131  A    between atoms: _340  and  _341
REMARK  132  A    between atoms: _341  and  _342
REMARK  133  A    between atoms: _342  and  _343
REMARK  134  A    between atoms: _352  and  _354
REMARK  135  A    between atoms: _354  and  _355
REMARK  136  A    between atoms: _354  and  _357
REMARK  137  A    between atoms: _357  and  _358
REMARK  138  A    between atoms: _358  and  _359
REMARK  139  A    between atoms: _362  and  _364
REMARK  140  A    between atoms: _364  and  _365
REMARK  141  A    between atoms: _368  and  _370
REMARK  142  A    between atoms: _370  and  _371
REMARK  143  A    between atoms: _370  and  _373
REMARK  144  A    between atoms: _373  and  _374
REMARK  145  A    between atoms: _374  and  _375
REMARK  146  A    between atoms: _375  and  _376
REMARK  147  A    between atoms: _385  and  _387
REMARK  148  A    between atoms: _387  and  _388
REMARK  149  A    between atoms: _387  and  _390
REMARK  150  A    between atoms: _390  and  _391
REMARK  151  A    between atoms: _391  and  _392
REMARK  152  A    between atoms: _392  and  _393
REMARK  153  A    between atoms: _402  and  _404
REMARK  154  A    between atoms: _404  and  _405
REMARK  155  A    between atoms: _404  and  _407
REMARK  156  A    between atoms: _407  and  _408
REMARK  157  A    between atoms: _411  and  _413
REMARK  158  A    between atoms: _413  and  _414
REMARK  159  A    between atoms: _413  and  _416
REMARK  160  A    between atoms: _416  and  _417
REMARK  161  A    between atoms: _420  and  _422
REMARK  162  A    between atoms: _422  and  _423
REMARK  163  A    between atoms: _426  and  _428
REMARK  164  A    between atoms: _428  and  _429
REMARK  165  A    between atoms: _428  and  _431
REMARK  166  A    between atoms: _431  and  _432
REMARK  167  A    between atoms: _432  and  _433
REMARK  168  A    between atoms: _438  and  _440
REMARK  169  A    between atoms: _440  and  _441
REMARK  170  A    between atoms: _445  and  _446
REMARK  171  A    between atoms: _451  and  _453
REMARK  172  A    between atoms: _453  and  _454
REMARK  173  A    between atoms: _453  and  _456
REMARK  174  A    between atoms: _456  and  _457
REMARK  175  A    between atoms: _457  and  _458
REMARK  176  A    between atoms: _458  and  _459
REMARK  177  A    between atoms: _459  and  _460
REMARK  178  A    between atoms: _464  and  _466
REMARK  179  A    between atoms: _466  and  _467
REMARK  180  A    between atoms: _466  and  _469
REMARK  181  A    between atoms: _469  and  _470
REMARK  182  A    between atoms: _470  and  _471
REMARK  183  A    between atoms: _473  and  _475
REMARK  184  A    between atoms: _475  and  _476
REMARK  185  A    between atoms: _475  and  _478
REMARK  186  A    between atoms: _478  and  _479
REMARK  187  A    between atoms: _483  and  _484
REMARK  188  A    between atoms: _489  and  _491
REMARK  189  A    between atoms: _491  and  _492
REMARK  190  A    between atoms: _491  and  _494
REMARK  191  A    between atoms: _494  and  _495
REMARK  192  A    between atoms: _500  and  _502
REMARK  193  A    between atoms: _502  and  _503
REMARK  194  A    between atoms: _502  and  _505
REMARK  195  A    between atoms: _505  and  _506
REMARK  196  A    between atoms: _509  and  _511
REMARK  197  A    between atoms: _511  and  _512
REMARK  198  A    between atoms: _511  and  _514
REMARK  199  A    between atoms: _517  and  _519
REMARK  200  A    between atoms: _519  and  _520
REMARK  201  A    between atoms: _519  and  _522
REMARK  202  A    between atoms: _522  and  _523
REMARK  203  A    between atoms: _523  and  _524
REMARK  204  A    between atoms: _524  and  _525
REMARK  205  A    between atoms: _525  and  _526
REMARK  206  A    between atoms: _530  and  _532
REMARK  207  A    between atoms: _532  and  _533
REMARK  208  A    between atoms: _536  and  _538
REMARK  209  A    between atoms: _538  and  _539
REMARK  210  A    between atoms: _538  and  _541
REMARK  211  A    between atoms: _541  and  _542
REMARK  212  A    between atoms: _545  and  _547
REMARK  213  A    between atoms: _547  and  _548
REMARK  214  A    between atoms: _547  and  _550
REMARK  215  A    between atoms: _550  and  _551
REMARK  216  A    between atoms: _554  and  _556
REMARK  217  A    between atoms: _556  and  _557
REMARK  218  A    between atoms: _556  and  _559
REMARK  219  A    between atoms: _559  and  _560
REMARK  220  A    between atoms: _563  and  _565
REMARK  221  A    between atoms: _565  and  _566
REMARK  222  A    between atoms: _565  and  _568
REMARK  223  A    between atoms: _568  and  _569
REMARK  224  A    between atoms: _569  and  _570
REMARK  225  A    between atoms: _573  and  _575
REMARK  226  A    between atoms: _575  and  _576
REMARK  227  A    between atoms: _575  and  _578
REMARK  228  A    between atoms: _578  and  _579
REMARK  229  A    between atoms: _579  and  _580
REMARK  230  A    between atoms: _580  and  _581
REMARK  231  A    between atoms: _581  and  _582
REMARK  232  A    between atoms: _586  and  _588
REMARK  233  A    between atoms: _588  and  _589
REMARK  234  A    between atoms: _588  and  _591
REMARK  235  A    between atoms: _591  and  _592
REMARK                            x       y       z     vdW  Elec       q    Type
REMARK                         _______ _______ _______ _____ _____    ______ ____
ROOT
ATOM      1  O   HOH     1      15.554  -0.201  32.140  0.00  0.00    +0.000 OA
ENDROOT
TORSDOF 0
REMARK  Name = ../refined-set-2016/2gzl/2gzl_pocket.pdb
REMARK  235 active torsions:
REMARK  status: ('A' for Active; 'I' for Inactive)
REMARK    1  A    between atoms: _1  and  _3
REMARK    2  A    between atoms: _3  and  _4
REMARK    3  A    between atoms: _3  and  _6
REMARK    4  A    between atoms: _6  and  _7
REMARK    5  A    between atoms: _13  and  _15
REMARK    6  A    between atoms: _24  and  _27
REMARK    7  A    between atoms: _32  and  _33
REMARK    8  A    between atoms: _41  and  _43
REMARK    9  A    between atoms: _43  and  _44
REMARK   10  A    between atoms: _43  and  _46
REMARK   11  A    between atoms: _46  and  _47
REMARK   12  A    between atoms: _50  and  _52
REMARK   13  A    between atoms: _52  and  _53
REMARK   14  A    between atoms: _56  and  _58
REMARK   15  A    between atoms: _58  and  _59
REMARK   16  A    between atoms: _58  and  _61
REMARK   17  A    between atoms: _61  and  _62
REMARK   18  A    between atoms: _67  and  _69
REMARK   19  A    between atoms: _69  and  _70
REMARK   20  A    between atoms: _69  and  _72
REMARK   21  A    between atoms: _72  and  _73
REMARK   22  A    between atoms: _75  and  _77
REMARK   23  A    between atoms: _77  and  _78
REMARK   24  A    between atoms: _77  and  _80
REMARK   25  A    between atoms: _80  and  _81
REMARK   26  A    between atoms: _84  and  _86
REMARK   27  A    between atoms: _86  and  _87
REMARK   28  A    between atoms: _89  and  _91
REMARK   29  A    between atoms: _91  and  _92
REMARK   30  A    between atoms: _91  and  _94
REMARK   31  A    between atoms: _94  and  _95
REMARK   32  A    between atoms: _98  and  _100
REMARK   33  A    between atoms: _100  and  _101
REMARK   34  A    between atoms: _100  and  _103
REMARK   35  A    between atoms: _106  and  _108
REMARK   36  A    between atoms: _108  and  _109
REMARK   37  A    between atoms: _108  and  _111
REMARK   38  A    between atoms: _111  and  _112
REMARK   39  A    between atoms: _113  and  ZN_595
REMARK   40  A    between atoms: _117  and  _119
REMARK   41  A    between atoms: _119  and  _120
REMARK   42  A    between atoms: _123  and  _125
REMARK   43  A    between atoms: _125  and  _126
REMARK   44  A    between atoms: _125  and  _128
REMARK   45  A    between atoms: _128  and  _129
REMARK   46  A    between atoms: _132  and  _134
REMARK   47  A    between atoms: _134  and  _135
REMARK   48  A    between atoms: _134  and  _137
REMARK   49  A    between atoms: _137  and  _138
REMARK   50  A    between atoms: _141  and  _143
REMARK   51  A    between atoms: _143  and  _144
REMARK   52  A    between atoms: _146  and  _148
REMARK   53  A    between atoms: _148  and  _149
REMARK   54  A    between atoms: _148  and  _151
REMARK   55  A    between atoms: _151  and  _152
REMARK   56  A    between atoms: _155  and  _157
REMARK   57  A    between atoms: _157  and  _158
REMARK   58  A    between atoms: _157  and  _160
REMARK   59  A    between atoms: _160  and  _161
REMARK   60  A    between atoms: _164  and  _166
REMARK   61  A    between atoms: _166  and  _167
REMARK   62  A    between atoms: _169  and  _171
REMARK   63  A    between atoms: _171  and  _172
REMARK   64  A    between atoms: _171  and  _174
REMARK   65  A    between atoms: _174  and  _175
REMARK   66  A    between atoms: _175  and  _176
REMARK   67  A    between atoms: _176  and  _177
REMARK   68  A    between atoms: _177  and  _178
REMARK   69  A    between atoms: _182  and  _184
REMARK   70  A    between atoms: _184  and  _185
REMARK   71  A    between atoms: _184  and  _187
REMARK   72  A    between atoms: _187  and  _188
REMARK   73  A    between atoms: _191  and  _193
REMARK   74  A    between atoms: _193  and  _194
REMARK   75  A    between atoms: _193  and  _196
REMARK   76  A    between atoms: _196  and  _197
REMARK   77  A    between atoms: _204  and  _205
REMARK   78  A    between atoms: _210  and  _212
REMARK   79  A    between atoms: _212  and  _213
REMARK   80  A    between atoms: _212  and  _215
REMARK   81  A    between atoms: _215  and  _216
REMARK   82  A    between atoms: _219  and  _221
REMARK   83  A    between atoms: _221  and  _222
REMARK   84  A    between atoms: _221  and  _224
REMARK   85  A    between atoms: _224  and  _225
REMARK   86  A    between atoms: _228  and  _230
REMARK   87  A    between atoms: _230  and  _231
REMARK   88  A    between atoms: _230  and  _233
REMARK   89  A    between atoms: _233  and  _234
REMARK   90  A    between atoms: _238  and  _239
REMARK   91  A    between atoms: _244  and  _246
REMARK   92  A    between atoms: _246  and  _247
REMARK   93  A    between atoms: _250  and  _252
REMARK   94  A    between atoms: _252  and  _253
REMARK   95  A    between atoms: _252  and  _255
REMARK   96  A    between atoms: _255  and  _256
REMARK   97  A    between atoms: _262  and  _264
REMARK   98  A    between atoms: _264  and  _265
REMARK   99  A    between atoms: _267  and  _269
REMARK  100  A    between atoms: _269  and  _270
REMARK  101  A    between atoms: _273  and  _275
REMARK  102  A    between atoms: _275  and  _276
REMARK  103  A    between atoms: _275  and  _278
REMARK  104  A    between atoms: _278  and  _279
REMARK  105  A    between atoms: _282  and  _284
REMARK  106  A    between atoms: _284  and  _285
REMARK  107  A    between atoms: _284  and  _287
REMARK  108  A    between atoms: _287  and  _288
REMARK  109  A    between atoms: _290  and  _292
REMARK  110  A    between atoms: _292  and  _293
REMARK  111  A    between atoms: _292  and  _295
REMARK  112  A    between atoms: _295  and  _296
REMARK  113  A    between atoms: _296  and  _297
REMARK  114  A    between atoms: _297  and  _298
REMARK  115  A    between atoms: _307  and  _309
REMARK  116  A    between atoms: _309  and  _310
REMARK  117  A    between atoms: _309  and  _312
REMARK  118  A    between atoms: _312  and  _313
REMARK  119  A    between atoms: _313  and  _314
REMARK  120  A    between atoms: _317  and  _319
REMARK  121  A    between atoms: _319  and  _320
REMARK  122  A    between atoms: _319  and  _322
REMARK  123  A    between atoms: _322  and  _323
REMARK  124  A    between atoms: _326  and  _328
REMARK  125  A    between atoms: _328  and  _329
REMARK  126  A    between atoms: _328  and  _331
REMARK  127  A    between atoms: _331  and  _332
REMARK  128  A    between atoms: _335  and  _337
REMARK  129  A    between atoms: _337  and  _338
REMARK  130  A    between atoms: _337  and  _340
REMARK  131  A    between atoms: _340  and  _341
REMARK  132  A    between atoms: _341  and  _342
REMARK  133  A    between atoms: _342  and  _343
REMARK  134  A    between atoms: _352  and  _354
REMARK  135  A    between atoms: _354  and  _355
REMARK  136  A    between atoms: _354  and  _357
REMARK  137  A    between atoms: _357  and  _358
REMARK  138  A    between atoms: _358  and  _359
REMARK  139  A    between atoms: _362  and  _364
REMARK  140  A    between atoms: _364  and  _365
REMARK  141  A    between atoms: _368  and  _370
REMARK  142  A    between atoms: _370  and  _371
REMARK  143  A    between atoms: _370  and  _373
REMARK  144  A    between atoms: _373  and  _374
REMARK  145  A    between atoms: _374  and  _375
REMARK  146  A    between atoms: _375  and  _376
REMARK  147  A    between atoms: _385  and  _387
REMARK  148  A    between atoms: _387  and  _388
REMARK  149  A    between atoms: _387  and  _390
REMARK  150  A    between atoms: _390  and  _391
REMARK  151  A    between atoms: _391  and  _392
REMARK  152  A    between atoms: _392  and  _393
REMARK  153  A    between atoms: _402  and  _404
REMARK  154  A    between atoms: _404  and  _405
REMARK  155  A    between atoms: _404  and  _407
REMARK  156  A    between atoms: _407  and  _408
REMARK  157  A    between atoms: _411  and  _413
REMARK  158  A    between atoms: _413  and  _414
REMARK  159  A    between atoms: _413  and  _416
REMARK  160  A    between atoms: _416  and  _417
REMARK  161  A    between atoms: _420  and  _422
REMARK  162  A    between atoms: _422  and  _423
REMARK  163  A    between atoms: _426  and  _428
REMARK  164  A    between atoms: _428  and  _429
REMARK  165  A    between atoms: _428  and  _431
REMARK  166  A    between atoms: _431  and  _432
REMARK  167  A    between atoms: _432  and  _433
REMARK  168  A    between atoms: _438  and  _440
REMARK  169  A    between atoms: _440  and  _441
REMARK  170  A    between atoms: _445  and  _446
REMARK  171  A    between atoms: _451  and  _453
REMARK  172  A    between atoms: _453  and  _454
REMARK  173  A    between atoms: _453  and  _456
REMARK  174  A    between atoms: _456  and  _457
REMARK  175  A    between atoms: _457  and  _458
REMARK  176  A    between atoms: _458  and  _459
REMARK  177  A    between atoms: _459  and  _460
REMARK  178  A    between atoms: _464  and  _466
REMARK  179  A    between atoms: _466  and  _467
REMARK  180  A    between atoms: _466  and  _469
REMARK  181  A    between atoms: _469  and  _470
REMARK  182  A    between atoms: _470  and  _471
REMARK  183  A    between atoms: _473  and  _475
REMARK  184  A    between atoms: _475  and  _476
REMARK  185  A    between atoms: _475  and  _478
REMARK  186  A    between atoms: _478  and  _479
REMARK  187  A    between atoms: _483  and  _484
REMARK  188  A    between atoms: _489  and  _491
REMARK  189  A    between atoms: _491  and  _492
REMARK  190  A    between atoms: _491  and  _494
REMARK  191  A    between atoms: _494  and  _495
REMARK  192  A    between atoms: _500  and  _502
REMARK  193  A    between atoms: _502  and  _503
REMARK  194  A    between atoms: _502  and  _505
REMARK  195  A    between atoms: _505  and  _506
REMARK  196  A    between atoms: _509  and  _511
REMARK  197  A    between atoms: _511  and  _512
REMARK  198  A    between atoms: _511  and  _514
REMARK  199  A    between atoms: _517  and  _519
REMARK  200  A    between atoms: _519  and  _520
REMARK  201  A    between atoms: _519  and  _522
REMARK  202  A    between atoms: _522  and  _523
REMARK  203  A    between atoms: _523  and  _524
REMARK  204  A    between atoms: _524  and  _525
REMARK  205  A    between atoms: _525  and  _526
REMARK  206  A    between atoms: _530  and  _532
REMARK  207  A    between atoms: _532  and  _533
REMARK  208  A    between atoms: _536  and  _538
REMARK  209  A    between atoms: _538  and  _539
REMARK  210  A    between atoms: _538  and  _541
REMARK  211  A    between atoms: _541  and  _542
REMARK  212  A    between atoms: _545  and  _547
REMARK  213  A    between atoms: _547  and  _548
REMARK  214  A    between atoms: _547  and  _550
REMARK  215  A    between atoms: _550  and  _551
REMARK  216  A    between atoms: _554  and  _556
REMARK  217  A    between atoms: _556  and  _557
REMARK  218  A    between atoms: _556  and  _559
REMARK  219  A    between atoms: _559  and  _560
REMARK  220  A    between atoms: _563  and  _565
REMARK  221  A    between atoms: _565  and  _566
REMARK  222  A    between atoms: _565  and  _568
REMARK  223  A    between atoms: _568  and  _569
REMARK  224  A    between atoms: _569  and  _570
REMARK  225  A    between atoms: _573  and  _575
REMARK  226  A    between atoms: _575  and  _576
REMARK  227  A    between atoms: _575  and  _578
REMARK  228  A    between atoms: _578  and  _579
REMARK  229  A    between atoms: _579  and  _580
REMARK  230  A    between atoms: _580  and  _581
REMARK  231  A    between atoms: _581  and  _582
REMARK  232  A    between atoms: _586  and  _588
REMARK  233  A    between atoms: _588  and  _589
REMARK  234  A    between atoms: _588  and  _591
REMARK  235  A    between atoms: _591  and  _592
REMARK                            x       y       z     vdW  Elec       q    Type
REMARK                         _______ _______ _______ _____ _____    ______ ____
ROOT
ATOM      1  O   HOH     1      12.351  -0.618  29.876  0.00  0.00    +0.000 OA
ENDROOT
TORSDOF 0
