REMARK  Name = ../refined-set-2016/1hdq/1hdq_pocket.pdb
REMARK  161 active torsions:
REMARK  status: ('A' for Active; 'I' for Inactive)
REMARK    1  A    between atoms: _1  and  _3
REMARK    2  A    between atoms: _3  and  _4
REMARK    3  A    between atoms: _3  and  _6
REMARK    4  A    between atoms: _6  and  _7
REMARK    5  A    between atoms: _10  and  _12
REMARK    6  A    between atoms: _12  and  _13
REMARK    7  A    between atoms: _12  and  _15
REMARK    8  A    between atoms: _15  and  _16
REMARK    9  A    between atoms: _17  and  ZN_385
REMARK   10  A    between atoms: _21  and  _23
REMARK   11  A    between atoms: _23  and  _24
REMARK   12  A    between atoms: _23  and  _26
REMARK   13  A    between atoms: _26  and  _27
REMARK   14  A    between atoms: _27  and  _28
REMARK   15  A    between atoms: _28  and  _29
REMARK   16  A    between atoms: _38  and  _40
REMARK   17  A    between atoms: _40  and  _41
REMARK   18  A    between atoms: _40  and  _43
REMARK   19  A    between atoms: _43  and  _44
REMARK   20  A    between atoms: _44  and  _45
REMARK   21  A    between atoms: _48  and  _50
REMARK   22  A    between atoms: _50  and  _51
REMARK   23  A    between atoms: _50  and  _53
REMARK   24  A    between atoms: _53  and  _54
REMARK   25  A    between atoms: _57  and  _59
REMARK   26  A    between atoms: _59  and  _60
REMARK   27  A    between atoms: _59  and  _62
REMARK   28  A    between atoms: _62  and  _63
REMARK   29  A    between atoms: _63  and  _64
REMARK   30  A    between atoms: _64  and  _65
REMARK   31  A    between atoms: _74  and  _76
REMARK   32  A    between atoms: _76  and  _77
REMARK   33  A    between atoms: _76  and  _79
REMARK   34  A    between atoms: _79  and  _80
REMARK   35  A    between atoms: _83  and  _85
REMARK   36  A    between atoms: _85  and  _86
REMARK   37  A    between atoms: _85  and  _88
REMARK   38  A    between atoms: _88  and  _89
REMARK   39  A    between atoms: _94  and  _96
REMARK   40  A    between atoms: _96  and  _97
REMARK   41  A    between atoms: _96  and  _99
REMARK   42  A    between atoms: _99  and  _100
REMARK   43  A    between atoms: _100  and  _101
REMARK   44  A    between atoms: _101  and  _102
REMARK   45  A    between atoms: _111  and  _113
REMARK   46  A    between atoms: _113  and  _114
REMARK   47  A    between atoms: _116  and  _118
REMARK   48  A    between atoms: _118  and  _119
REMARK   49  A    between atoms: _118  and  _121
REMARK   50  A    between atoms: _121  and  _122
REMARK   51  A    between atoms: _122  and  _123
REMARK   52  A    between atoms: _126  and  _128
REMARK   53  A    between atoms: _128  and  _129
REMARK   54  A    between atoms: _128  and  _131
REMARK   55  A    between atoms: _131  and  _132
REMARK   56  A    between atoms: _135  and  _137
REMARK   57  A    between atoms: _137  and  _138
REMARK   58  A    between atoms: _137  and  _140
REMARK   59  A    between atoms: _140  and  _141
REMARK   60  A    between atoms: _143  and  _145
REMARK   61  A    between atoms: _145  and  _146
REMARK   62  A    between atoms: _145  and  _148
REMARK   63  A    between atoms: _148  and  _149
REMARK   64  A    between atoms: _152  and  _154
REMARK   65  A    between atoms: _154  and  _155
REMARK   66  A    between atoms: _154  and  _157
REMARK   67  A    between atoms: _157  and  _158
REMARK   68  A    between atoms: _159  and  ZN_385
REMARK   69  A    between atoms: _163  and  _165
REMARK   70  A    between atoms: _165  and  _166
REMARK   71  A    between atoms: _165  and  _168
REMARK   72  A    between atoms: _168  and  _169
REMARK   73  A    between atoms: _171  and  _173
REMARK   74  A    between atoms: _173  and  _174
REMARK   75  A    between atoms: _173  and  _176
REMARK   76  A    between atoms: _176  and  _177
REMARK   77  A    between atoms: _182  and  _183
REMARK   78  A    between atoms: _185  and  _187
REMARK   79  A    between atoms: _187  and  _188
REMARK   80  A    between atoms: _187  and  _190
REMARK   81  A    between atoms: _190  and  _191
REMARK   82  A    between atoms: _193  and  _195
REMARK   83  A    between atoms: _195  and  _196
REMARK   84  A    between atoms: _195  and  _198
REMARK   85  A    between atoms: _198  and  _199
REMARK   86  A    between atoms: _202  and  _204
REMARK   87  A    between atoms: _204  and  _205
REMARK   88  A    between atoms: _204  and  _207
REMARK   89  A    between atoms: _207  and  _208
REMARK   90  A    between atoms: _211  and  _213
REMARK   91  A    between atoms: _213  and  _214
REMARK   92  A    between atoms: _216  and  _218
REMARK   93  A    between atoms: _218  and  _219
REMARK   94  A    between atoms: _218  and  _221
REMARK   95  A    between atoms: _221  and  _222
REMARK   96  A    between atoms: _227  and  _228
REMARK   97  A    between atoms: _230  and  _232
REMARK   98  A    between atoms: _232  and  _233
REMARK   99  A    between atoms: _232  and  _235
REMARK  100  A    between atoms: _235  and  _236
REMARK  101  A    between atoms: _239  and  _241
REMARK  102  A    between atoms: _241  and  _242
REMARK  103  A    between atoms: _241  and  _244
REMARK  104  A    between atoms: _244  and  _245
REMARK  105  A    between atoms: _248  and  _250
REMARK  106  A    between atoms: _250  and  _251
REMARK  107  A    between atoms: _250  and  _253
REMARK  108  A    between atoms: _253  and  _254
REMARK  109  A    between atoms: _257  and  _259
REMARK  110  A    between atoms: _259  and  _260
REMARK  111  A    between atoms: _259  and  _262
REMARK  112  A    between atoms: _262  and  _263
REMARK  113  A    between atoms: _268  and  _269
REMARK  114  A    between atoms: _271  and  _273
REMARK  115  A    between atoms: _273  and  _274
REMARK  116  A    between atoms: _273  and  _276
REMARK  117  A    between atoms: _276  and  _277
REMARK  118  A    between atoms: _277  and  _278
REMARK  119  A    between atoms: _283  and  _285
REMARK  120  A    between atoms: _285  and  _286
REMARK  121  A    between atoms: _289  and  _291
REMARK  122  A    between atoms: _291  and  _292
REMARK  123  A    between atoms: _291  and  _294
REMARK  124  A    between atoms: _294  and  _295
REMARK  125  A    between atoms: _297  and  _299
REMARK  126  A    between atoms: _299  and  _300
REMARK  127  A    between atoms: _302  and  _304
REMARK  128  A    between atoms: _304  and  _305
REMARK  129  A    between atoms: _307  and  _309
REMARK  130  A    between atoms: _309  and  _310
REMARK  131  A    between atoms: _309  and  _312
REMARK  132  A    between atoms: _312  and  _313
REMARK  133  A    between atoms: _315  and  _317
REMARK  134  A    between atoms: _317  and  _318
REMARK  135  A    between atoms: _317  and  _320
REMARK  136  A    between atoms: _320  and  _321
REMARK  137  A    between atoms: _324  and  _326
REMARK  138  A    between atoms: _326  and  _327
REMARK  139  A    between atoms: _326  and  _329
REMARK  140  A    between atoms: _329  and  _330
REMARK  141  A    between atoms: _333  and  _335
REMARK  142  A    between atoms: _335  and  _336
REMARK  143  A    between atoms: _335  and  _338
REMARK  144  A    between atoms: _338  and  _339
REMARK  145  A    between atoms: _342  and  _344
REMARK  146  A    between atoms: _344  and  _345
REMARK  147  A    between atoms: _344  and  _347
REMARK  148  A    between atoms: _347  and  _348
REMARK  149  A    between atoms: _354  and  _356
REMARK  150  A    between atoms: _356  and  _357
REMARK  151  A    between atoms: _356  and  _359
REMARK  152  A    between atoms: _359  and  _360
REMARK  153  A    between atoms: _360  and  _361
REMARK  154  A    between atoms: _364  and  _366
REMARK  155  A    between atoms: _366  and  _367
REMARK  156  A    between atoms: _366  and  _369
REMARK  157  A    between atoms: _369  and  _370
REMARK  158  A    between atoms: _373  and  _375
REMARK  159  A    between atoms: _375  and  _376
REMARK  160  A    between atoms: _375  and  _378
REMARK  161  A    between atoms: _378  and  _379
REMARK                            x       y       z     vdW  Elec       q    Type
REMARK                         _______ _______ _______ _____ _____    ______ ____
ROOT
ATOM      1  C   UNK A   2      -7.470  25.665  -6.555  0.00  0.00    +0.000 C 
ENDROOT
BRANCH   1   2
ATOM      2  C   UNK A   2      -8.293  26.463  -5.531  0.00  0.00    +0.000 C 
ATOM      3  N   SER A   4      -7.603  27.027  -4.545  0.00  0.00    +0.000 N 
ATOM      4  H   SER A   4      -6.579  26.853  -4.492  0.00  0.00    +0.000 HD
ATOM      5  O   UNK A   2      -9.512  26.567  -5.637  0.00  0.00    +0.000 OA
BRANCH   3   6
ATOM      6  CA  SER A   4      -8.223  27.884  -3.529  0.00  0.00    +0.000 C 
BRANCH   6   7
ATOM      7  C   SER A   4      -7.049  28.665  -2.937  0.00  0.00    +0.000 C 
ATOM      8  N   TYR A   5      -7.283  29.860  -2.400  0.00  0.00    +0.000 N 
ATOM      9  H   TYR A   5      -6.473  30.378  -2.002  0.00  0.00    +0.000 HD
ATOM     10  O   SER A   4      -5.916  28.183  -2.980  0.00  0.00    +0.000 OA
BRANCH   8  11
ATOM     11  CA  TYR A   5      -8.597  30.497  -2.329  0.00  0.00    +0.000 C 
BRANCH  11  12
ATOM     12  C   TYR A   5      -8.482  31.883  -2.966  0.00  0.00    +0.000 C 
ATOM     13  N   SER A   6      -9.603  32.609  -2.992  0.00  0.00    +0.000 N 
ATOM     14  H   SER A   6     -10.465  32.168  -2.613  0.00  0.00    +0.000 HD
ATOM     15  O   TYR A   5      -7.403  32.270  -3.403  0.00  0.00    +0.000 OA
BRANCH  13  16
ATOM     16  CA  SER A   6      -9.721  33.985  -3.513  0.00  0.00    +0.000 C 
BRANCH  16  17
ATOM     17  C   SER A   6     -10.968  34.210  -4.377  0.00  0.00    +0.000 C 
ATOM     18  O   SER A   6     -11.269  35.342  -4.749  0.00  0.00    +0.000 OA
ENDBRANCH  16  17
BRANCH  16  19
ATOM     19  CB  SER A   6      -8.472  34.414  -4.297  0.00  0.00    +0.000 C 
BRANCH  19  20
ATOM     20  OG  SER A   6      -8.281  33.613  -5.444  0.00  0.00    +0.000 OA
ATOM     21  H   SER A   6      -8.171  32.668  -5.170  0.00  0.00    +0.000 HD
ENDBRANCH  19  20
ENDBRANCH  16  19
ENDBRANCH  13  16
ENDBRANCH  11  12
BRANCH  11  22
ATOM     22  CB  TYR A   5      -9.008  30.663  -0.863  0.00  0.00    +0.000 C 
BRANCH  22  23
ATOM     23  CG  TYR A   5      -8.067  31.569  -0.089  0.00  0.00    +0.000 A 
ATOM     24  CD2 TYR A   5      -6.859  31.088   0.421  0.00  0.00    +0.000 A 
ATOM     25  CE2 TYR A   5      -5.955  31.940   1.078  0.00  0.00    +0.000 A 
ATOM     26  CZ  TYR A   5      -6.261  33.287   1.222  0.00  0.00    +0.000 A 
ATOM     27  CE1 TYR A   5      -7.455  33.786   0.723  0.00  0.00    +0.000 A 
ATOM     28  CD1 TYR A   5      -8.354  32.925   0.075  0.00  0.00    +0.000 A 
BRANCH  26  29
ATOM     29  OH  TYR A   5      -5.384  34.135   1.871  0.00  0.00    +0.000 OA
ATOM     30  HH  TYR A   5      -4.588  33.624   2.162  0.00  0.00    +0.000 HD
ENDBRANCH  26  29
ENDBRANCH  22  23
ENDBRANCH  11  22
ENDBRANCH   8  11
ENDBRANCH   6   7
BRANCH   6  31
ATOM     31  CB  SER A   4      -8.919  27.056  -2.436  0.00  0.00    +0.000 C 
BRANCH  31  32
ATOM     32  OG  SER A   4      -7.998  26.607  -1.454  0.00  0.00    +0.000 OA
ATOM     33  H   SER A   4      -8.479  26.079  -0.769  0.00  0.00    +0.000 HD
ENDBRANCH  31  32
ENDBRANCH   6  31
ENDBRANCH   3   6
ENDBRANCH   1   2
BRANCH   1  34
ATOM     34  N   UNK A   2      -8.333  25.196  -7.644  0.00  0.00    +0.000 N 
ATOM     35  H   UNK A   2      -9.033  25.855  -8.041  0.00  0.00    +0.000 HD
ATOM     36  C   UNK A   2      -8.262  23.967  -8.148  0.00  0.00    +0.000 C 
ATOM     37  O   UNK A   2      -7.486  23.104  -7.723  0.00  0.00    +0.000 OA
BRANCH  36  38
ATOM     38  C   UNK A   2      -9.231  23.661  -9.293  0.00  0.00    +0.000 C 
BRANCH  38  39
ATOM     39  N   UNK A   2      -8.559  23.095 -10.465  0.00  0.00    +0.000 N 
ATOM     40  H   UNK A   2      -8.274  22.095 -10.450  0.00  0.00    +0.000 HD
ATOM     41  C   SER A   1      -8.303  23.825 -11.550  0.00  0.00    +0.000 C 
ATOM     42  O   SER A   1      -8.590  25.023 -11.639  0.00  0.00    +0.000 OA
BRANCH  41  43
ATOM     43  CA  SER A   1      -7.622  23.110 -12.710  0.00  0.00    +0.000 C 
BRANCH  43  44
ATOM     44  N   SER A   1      -8.429  23.342 -13.909  0.00  0.00    +0.000 NA
ATOM     45  H   SER A   1      -8.541  24.315 -14.259  0.00  0.00    +0.000 HD
ENDBRANCH  43  44
BRANCH  43  46
ATOM     46  CB  SER A   1      -6.210  23.666 -12.896  0.00  0.00    +0.000 C 
BRANCH  46  47
ATOM     47  OG  SER A   1      -5.593  23.103 -14.035  0.00  0.00    +0.000 OA
ATOM     48  H   SER A   1      -5.537  22.120 -13.927  0.00  0.00    +0.000 HD
ENDBRANCH  46  47
ENDBRANCH  43  46
ENDBRANCH  41  43
ENDBRANCH  38  39
BRANCH  38  49
ATOM     49  C   UNK A   2     -10.321  22.700  -8.762  0.00  0.00    +0.000 C 
ATOM     50  C   UNK A   2     -11.206  23.421  -7.743  0.00  0.00    +0.000 C 
BRANCH  49  51
ATOM     51  C   UNK A   2     -11.152  22.154  -9.930  0.00  0.00    +0.000 C 
ATOM     52  C   UNK A   2     -11.825  23.219 -10.778  0.00  0.00    +0.000 C 
ENDBRANCH  49  51
ENDBRANCH  38  49
ENDBRANCH  36  38
ENDBRANCH   1  34
BRANCH   1  53
ATOM     53  C   UNK A   2      -6.381  26.604  -7.111  0.00  0.00    +0.000 C 
BRANCH  53  55
ATOM     54  N   UNK A   2      -4.070  25.836  -7.765  0.00  0.00    +0.000 N 
ATOM     55  C   UNK A   2      -5.414  25.949  -8.047  0.00  0.00    +0.000 A 
ATOM     56  C   UNK A   2      -5.588  25.390  -9.270  0.00  0.00    +0.000 A 
ATOM     57  N   UNK A   2      -4.355  24.956  -9.696  0.00  0.00    +0.000 NA
ATOM     58  C   UNK A   2      -3.457  25.237  -8.770  0.00  0.00    +0.000 A 
BRANCH  54  59
ATOM     59 ZN   UNK A   2      -3.318  26.527  -5.743  0.00  0.00    +0.000 Zn
BRANCH  59  64
ATOM     60  C   UNK A   2      -0.853  24.678  -5.269  0.00  0.00    +0.000 A 
ATOM     61  C   UNK A   2       0.375  24.417  -5.779  0.00  0.00    +0.000 A 
ATOM     62  N   UNK A   2       0.707  25.471  -6.597  0.00  0.00    +0.000 NA
ATOM     63  C   UNK A   2      -0.281  26.348  -6.590  0.00  0.00    +0.000 A 
ATOM     64  N   UNK A   2      -1.233  25.892  -5.796  0.00  0.00    +0.000 N 
BRANCH  60  65
ATOM     65  C   UNK A   2      -1.709  23.902  -4.314  0.00  0.00    +0.000 C 
BRANCH  65  66
ATOM     66  C   UNK A   2      -1.382  22.407  -4.274  0.00  0.00    +0.000 C 
BRANCH  66  68
ATOM     67  C   SER A   1      -1.336  20.822  -6.146  0.00  0.00    +0.000 C 
ATOM     68  N   UNK A   2      -1.991  21.718  -5.413  0.00  0.00    +0.000 N 
ATOM     69  H   UNK A   2      -2.977  21.938  -5.659  0.00  0.00    +0.000 HD
ATOM     70  O   SER A   1      -0.153  20.541  -5.955  0.00  0.00    +0.000 OA
BRANCH  67  71
ATOM     71  CA  SER A   1      -2.150  20.135  -7.255  0.00  0.00    +0.000 C 
BRANCH  71  72
ATOM     72  CB  SER A   1      -1.977  20.856  -8.619  0.00  0.00    +0.000 C 
ATOM     73  CG2 SER A   1      -2.051  22.363  -8.445  0.00  0.00    +0.000 C 
BRANCH  72  74
ATOM     74  CG1 SER A   1      -0.635  20.461  -9.235  0.00  0.00    +0.000 C 
ATOM     75  CD1 SER A   1      -0.488  20.855 -10.687  0.00  0.00    +0.000 C 
ENDBRANCH  72  74
ENDBRANCH  71  72
BRANCH  71  76
ATOM     76  N   SER A   1      -3.553  20.090  -6.838  0.00  0.00    +0.000 NA
ATOM     77  H   SER A   1      -4.282  20.577  -7.396  0.00  0.00    +0.000 HD
ENDBRANCH  71  76
ENDBRANCH  67  71
ENDBRANCH  66  68
BRANCH  66  78
ATOM     78  C   UNK A   2      -2.046  21.730  -3.075  0.00  0.00    +0.000 C 
ATOM     79  O   UNK A   2      -3.201  22.015  -2.747  0.00  0.00    +0.000 OA
ENDBRANCH  66  78
ENDBRANCH  65  66
ENDBRANCH  60  65
ENDBRANCH  59  64
ENDBRANCH  54  59
ENDBRANCH  53  55
ENDBRANCH   1  53
TORSDOF 35
REMARK  Name = ../refined-set-2016/1hdq/1hdq_pocket.pdb
REMARK  161 active torsions:
REMARK  status: ('A' for Active; 'I' for Inactive)
REMARK    1  A    between atoms: _1  and  _3
REMARK    2  A    between atoms: _3  and  _4
REMARK    3  A    between atoms: _3  and  _6
REMARK    4  A    between atoms: _6  and  _7
REMARK    5  A    between atoms: _10  and  _12
REMARK    6  A    between atoms: _12  and  _13
REMARK    7  A    between atoms: _12  and  _15
REMARK    8  A    between atoms: _15  and  _16
REMARK    9  A    between atoms: _17  and  ZN_385
REMARK   10  A    between atoms: _21  and  _23
REMARK   11  A    between atoms: _23  and  _24
REMARK   12  A    between atoms: _23  and  _26
REMARK   13  A    between atoms: _26  and  _27
REMARK   14  A    between atoms: _27  and  _28
REMARK   15  A    between atoms: _28  and  _29
REMARK   16  A    between atoms: _38  and  _40
REMARK   17  A    between atoms: _40  and  _41
REMARK   18  A    between atoms: _40  and  _43
REMARK   19  A    between atoms: _43  and  _44
REMARK   20  A    between atoms: _44  and  _45
REMARK   21  A    between atoms: _48  and  _50
REMARK   22  A    between atoms: _50  and  _51
REMARK   23  A    between atoms: _50  and  _53
REMARK   24  A    between atoms: _53  and  _54
REMARK   25  A    between atoms: _57  and  _59
REMARK   26  A    between atoms: _59  and  _60
REMARK   27  A    between atoms: _59  and  _62
REMARK   28  A    between atoms: _62  and  _63
REMARK   29  A    between atoms: _63  and  _64
REMARK   30  A    between atoms: _64  and  _65
REMARK   31  A    between atoms: _74  and  _76
REMARK   32  A    between atoms: _76  and  _77
REMARK   33  A    between atoms: _76  and  _79
REMARK   34  A    between atoms: _79  and  _80
REMARK   35  A    between atoms: _83  and  _85
REMARK   36  A    between atoms: _85  and  _86
REMARK   37  A    between atoms: _85  and  _88
REMARK   38  A    between atoms: _88  and  _89
REMARK   39  A    between atoms: _94  and  _96
REMARK   40  A    between atoms: _96  and  _97
REMARK   41  A    between atoms: _96  and  _99
REMARK   42  A    between atoms: _99  and  _100
REMARK   43  A    between atoms: _100  and  _101
REMARK   44  A    between atoms: _101  and  _102
REMARK   45  A    between atoms: _111  and  _113
REMARK   46  A    between atoms: _113  and  _114
REMARK   47  A    between atoms: _116  and  _118
REMARK   48  A    between atoms: _118  and  _119
REMARK   49  A    between atoms: _118  and  _121
REMARK   50  A    between atoms: _121  and  _122
REMARK   51  A    between atoms: _122  and  _123
REMARK   52  A    between atoms: _126  and  _128
REMARK   53  A    between atoms: _128  and  _129
REMARK   54  A    between atoms: _128  and  _131
REMARK   55  A    between atoms: _131  and  _132
REMARK   56  A    between atoms: _135  and  _137
REMARK   57  A    between atoms: _137  and  _138
REMARK   58  A    between atoms: _137  and  _140
REMARK   59  A    between atoms: _140  and  _141
REMARK   60  A    between atoms: _143  and  _145
REMARK   61  A    between atoms: _145  and  _146
REMARK   62  A    between atoms: _145  and  _148
REMARK   63  A    between atoms: _148  and  _149
REMARK   64  A    between atoms: _152  and  _154
REMARK   65  A    between atoms: _154  and  _155
REMARK   66  A    between atoms: _154  and  _157
REMARK   67  A    between atoms: _157  and  _158
REMARK   68  A    between atoms: _159  and  ZN_385
REMARK   69  A    between atoms: _163  and  _165
REMARK   70  A    between atoms: _165  and  _166
REMARK   71  A    between atoms: _165  and  _168
REMARK   72  A    between atoms: _168  and  _169
REMARK   73  A    between atoms: _171  and  _173
REMARK   74  A    between atoms: _173  and  _174
REMARK   75  A    between atoms: _173  and  _176
REMARK   76  A    between atoms: _176  and  _177
REMARK   77  A    between atoms: _182  and  _183
REMARK   78  A    between atoms: _185  and  _187
REMARK   79  A    between atoms: _187  and  _188
REMARK   80  A    between atoms: _187  and  _190
REMARK   81  A    between atoms: _190  and  _191
REMARK   82  A    between atoms: _193  and  _195
REMARK   83  A    between atoms: _195  and  _196
REMARK   84  A    between atoms: _195  and  _198
REMARK   85  A    between atoms: _198  and  _199
REMARK   86  A    between atoms: _202  and  _204
REMARK   87  A    between atoms: _204  and  _205
REMARK   88  A    between atoms: _204  and  _207
REMARK   89  A    between atoms: _207  and  _208
REMARK   90  A    between atoms: _211  and  _213
REMARK   91  A    between atoms: _213  and  _214
REMARK   92  A    between atoms: _216  and  _218
REMARK   93  A    between atoms: _218  and  _219
REMARK   94  A    between atoms: _218  and  _221
REMARK   95  A    between atoms: _221  and  _222
REMARK   96  A    between atoms: _227  and  _228
REMARK   97  A    between atoms: _230  and  _232
REMARK   98  A    between atoms: _232  and  _233
REMARK   99  A    between atoms: _232  and  _235
REMARK  100  A    between atoms: _235  and  _236
REMARK  101  A    between atoms: _239  and  _241
REMARK  102  A    between atoms: _241  and  _242
REMARK  103  A    between atoms: _241  and  _244
REMARK  104  A    between atoms: _244  and  _245
REMARK  105  A    between atoms: _248  and  _250
REMARK  106  A    between atoms: _250  and  _251
REMARK  107  A    between atoms: _250  and  _253
REMARK  108  A    between atoms: _253  and  _254
REMARK  109  A    between atoms: _257  and  _259
REMARK  110  A    between atoms: _259  and  _260
REMARK  111  A    between atoms: _259  and  _262
REMARK  112  A    between atoms: _262  and  _263
REMARK  113  A    between atoms: _268  and  _269
REMARK  114  A    between atoms: _271  and  _273
REMARK  115  A    between atoms: _273  and  _274
REMARK  116  A    between atoms: _273  and  _276
REMARK  117  A    between atoms: _276  and  _277
REMARK  118  A    between atoms: _277  and  _278
REMARK  119  A    between atoms: _283  and  _285
REMARK  120  A    between atoms: _285  and  _286
REMARK  121  A    between atoms: _289  and  _291
REMARK  122  A    between atoms: _291  and  _292
REMARK  123  A    between atoms: _291  and  _294
REMARK  124  A    between atoms: _294  and  _295
REMARK  125  A    between atoms: _297  and  _299
REMARK  126  A    between atoms: _299  and  _300
REMARK  127  A    between atoms: _302  and  _304
REMARK  128  A    between atoms: _304  and  _305
REMARK  129  A    between atoms: _307  and  _309
REMARK  130  A    between atoms: _309  and  _310
REMARK  131  A    between atoms: _309  and  _312
REMARK  132  A    between atoms: _312  and  _313
REMARK  133  A    between atoms: _315  and  _317
REMARK  134  A    between atoms: _317  and  _318
REMARK  135  A    between atoms: _317  and  _320
REMARK  136  A    between atoms: _320  and  _321
REMARK  137  A    between atoms: _324  and  _326
REMARK  138  A    between atoms: _326  and  _327
REMARK  139  A    between atoms: _326  and  _329
REMARK  140  A    between atoms: _329  and  _330
REMARK  141  A    between atoms: _333  and  _335
REMARK  142  A    between atoms: _335  and  _336
REMARK  143  A    between atoms: _335  and  _338
REMARK  144  A    between atoms: _338  and  _339
REMARK  145  A    between atoms: _342  and  _344
REMARK  146  A    between atoms: _344  and  _345
REMARK  147  A    between atoms: _344  and  _347
REMARK  148  A    between atoms: _347  and  _348
REMARK  149  A    between atoms: _354  and  _356
REMARK  150  A    between atoms: _356  and  _357
REMARK  151  A    between atoms: _356  and  _359
REMARK  152  A    between atoms: _359  and  _360
REMARK  153  A    between atoms: _360  and  _361
REMARK  154  A    between atoms: _364  and  _366
REMARK  155  A    between atoms: _366  and  _367
REMARK  156  A    between atoms: _366  and  _369
REMARK  157  A    between atoms: _369  and  _370
REMARK  158  A    between atoms: _373  and  _375
REMARK  159  A    between atoms: _375  and  _376
REMARK  160  A    between atoms: _375  and  _378
REMARK  161  A    between atoms: _378  and  _379
REMARK                            x       y       z     vdW  Elec       q    Type
REMARK                         _______ _______ _______ _____ _____    ______ ____
ROOT
ATOM      1  CA  ARG A   1      -2.868  22.496   1.382  0.00  0.00    +0.145 C 
ENDROOT
BRANCH   1   2
ATOM      2  C   ARG A   1      -4.278  23.014   1.083  0.00  0.00    +0.238 C 
ATOM      3  O   ARG A   1      -5.012  23.388   2.001  0.00  0.00    -0.274 OA
ATOM      4  N   GLU A   2      -4.651  23.028  -0.194  0.00  0.00    -0.298 N 
ATOM      5  H   GLU A   2      -3.988  22.682  -0.917  0.00  0.00    +0.150 HD
BRANCH   4   6
ATOM      6  CA  GLU A   2      -5.962  23.514  -0.612  0.00  0.00    +0.137 C 
BRANCH   6   7
ATOM      7  C   GLU A   2      -7.049  22.433  -0.502  0.00  0.00    +0.227 C 
ATOM      8  O   GLU A   2      -7.725  22.092  -1.482  0.00  0.00    -0.286 OA
ENDBRANCH   6   7
BRANCH   6   9
ATOM      9  CB  GLU A   2      -5.841  24.062  -2.038  0.00  0.00    +0.039 C 
BRANCH   9  10
ATOM     10  CG  GLU A   2      -5.041  25.368  -2.070  0.00  0.00    +0.116 C 
BRANCH  10  11
ATOM     11  CD  GLU A   2      -4.360  25.647  -3.400  0.00  0.00    +0.365 C 
ATOM     12  OE2 GLU A   2      -3.288  26.284  -3.387  0.00  0.00    -0.246 OA
ATOM     13  OE1 GLU A   2      -4.894  25.248  -4.454  0.00  0.00    -0.246 OA
ENDBRANCH  10  11
ENDBRANCH   9  10
ENDBRANCH   6   9
ENDBRANCH   4   6
ENDBRANCH   1   2
BRANCH   1  14
ATOM     14  N   ARG A   1      -2.194  21.854   0.253  0.00  0.00    -0.238 NA
ATOM     15  H   ARG A   1      -1.415  22.347  -0.228  0.00  0.00    +0.142 HD
ENDBRANCH   1  14
BRANCH   1  16
ATOM     16  CB  ARG A   1      -2.020  23.649   1.911  0.00  0.00    +0.030 C 
BRANCH  16  17
ATOM     17  CG  ARG A   1      -1.879  24.802   0.940  0.00  0.00    +0.045 C 
BRANCH  17  18
ATOM     18  CD  ARG A   1      -0.954  25.856   1.515  0.00  0.00    +0.174 C 
BRANCH  18  19
ATOM     19  NE  ARG A   1      -0.790  27.005   0.630  0.00  0.00    -0.265 N 
ATOM     20  CZ  ARG A   1       0.104  27.970   0.832  0.00  0.00    +0.342 C 
ATOM     21  NH2 ARG A   1       0.909  27.915   1.888  0.00  0.00    -0.292 N 
ATOM     22 HH21 ARG A   1       0.839  27.119   2.554  0.00  0.00    +0.255 HD
ATOM     23 HH22 ARG A   1       1.609  28.668   2.048  0.00  0.00    +0.255 HD
ATOM     24  NH1 ARG A   1       0.194  28.985  -0.020  0.00  0.00    -0.292 N 
ATOM     25 HH11 ARG A   1       0.893  29.738   0.140  0.00  0.00    +0.255 HD
ATOM     26 HH12 ARG A   1      -0.435  29.027  -0.847  0.00  0.00    +0.255 HD
ATOM     27  HE  ARG A   1      -1.406  27.073  -0.205  0.00  0.00    +0.259 HD
ENDBRANCH  18  19
ENDBRANCH  17  18
ENDBRANCH  16  17
ENDBRANCH   1  16
TORSDOF 11
REMARK  Name = ../refined-set-2016/1hdq/1hdq_pocket.pdb
REMARK  161 active torsions:
REMARK  status: ('A' for Active; 'I' for Inactive)
REMARK    1  A    between atoms: _1  and  _3
REMARK    2  A    between atoms: _3  and  _4
REMARK    3  A    between atoms: _3  and  _6
REMARK    4  A    between atoms: _6  and  _7
REMARK    5  A    between atoms: _10  and  _12
REMARK    6  A    between atoms: _12  and  _13
REMARK    7  A    between atoms: _12  and  _15
REMARK    8  A    between atoms: _15  and  _16
REMARK    9  A    between atoms: _17  and  ZN_385
REMARK   10  A    between atoms: _21  and  _23
REMARK   11  A    between atoms: _23  and  _24
REMARK   12  A    between atoms: _23  and  _26
REMARK   13  A    between atoms: _26  and  _27
REMARK   14  A    between atoms: _27  and  _28
REMARK   15  A    between atoms: _28  and  _29
REMARK   16  A    between atoms: _38  and  _40
REMARK   17  A    between atoms: _40  and  _41
REMARK   18  A    between atoms: _40  and  _43
REMARK   19  A    between atoms: _43  and  _44
REMARK   20  A    between atoms: _44  and  _45
REMARK   21  A    between atoms: _48  and  _50
REMARK   22  A    between atoms: _50  and  _51
REMARK   23  A    between atoms: _50  and  _53
REMARK   24  A    between atoms: _53  and  _54
REMARK   25  A    between atoms: _57  and  _59
REMARK   26  A    between atoms: _59  and  _60
REMARK   27  A    between atoms: _59  and  _62
REMARK   28  A    between atoms: _62  and  _63
REMARK   29  A    between atoms: _63  and  _64
REMARK   30  A    between atoms: _64  and  _65
REMARK   31  A    between atoms: _74  and  _76
REMARK   32  A    between atoms: _76  and  _77
REMARK   33  A    between atoms: _76  and  _79
REMARK   34  A    between atoms: _79  and  _80
REMARK   35  A    between atoms: _83  and  _85
REMARK   36  A    between atoms: _85  and  _86
REMARK   37  A    between atoms: _85  and  _88
REMARK   38  A    between atoms: _88  and  _89
REMARK   39  A    between atoms: _94  and  _96
REMARK   40  A    between atoms: _96  and  _97
REMARK   41  A    between atoms: _96  and  _99
REMARK   42  A    between atoms: _99  and  _100
REMARK   43  A    between atoms: _100  and  _101
REMARK   44  A    between atoms: _101  and  _102
REMARK   45  A    between atoms: _111  and  _113
REMARK   46  A    between atoms: _113  and  _114
REMARK   47  A    between atoms: _116  and  _118
REMARK   48  A    between atoms: _118  and  _119
REMARK   49  A    between atoms: _118  and  _121
REMARK   50  A    between atoms: _121  and  _122
REMARK   51  A    between atoms: _122  and  _123
REMARK   52  A    between atoms: _126  and  _128
REMARK   53  A    between atoms: _128  and  _129
REMARK   54  A    between atoms: _128  and  _131
REMARK   55  A    between atoms: _131  and  _132
REMARK   56  A    between atoms: _135  and  _137
REMARK   57  A    between atoms: _137  and  _138
REMARK   58  A    between atoms: _137  and  _140
REMARK   59  A    between atoms: _140  and  _141
REMARK   60  A    between atoms: _143  and  _145
REMARK   61  A    between atoms: _145  and  _146
REMARK   62  A    between atoms: _145  and  _148
REMARK   63  A    between atoms: _148  and  _149
REMARK   64  A    between atoms: _152  and  _154
REMARK   65  A    between atoms: _154  and  _155
REMARK   66  A    between atoms: _154  and  _157
REMARK   67  A    between atoms: _157  and  _158
REMARK   68  A    between atoms: _159  and  ZN_385
REMARK   69  A    between atoms: _163  and  _165
REMARK   70  A    between atoms: _165  and  _166
REMARK   71  A    between atoms: _165  and  _168
REMARK   72  A    between atoms: _168  and  _169
REMARK   73  A    between atoms: _171  and  _173
REMARK   74  A    between atoms: _173  and  _174
REMARK   75  A    between atoms: _173  and  _176
REMARK   76  A    between atoms: _176  and  _177
REMARK   77  A    between atoms: _182  and  _183
REMARK   78  A    between atoms: _185  and  _187
REMARK   79  A    between atoms: _187  and  _188
REMARK   80  A    between atoms: _187  and  _190
REMARK   81  A    between atoms: _190  and  _191
REMARK   82  A    between atoms: _193  and  _195
REMARK   83  A    between atoms: _195  and  _196
REMARK   84  A    between atoms: _195  and  _198
REMARK   85  A    between atoms: _198  and  _199
REMARK   86  A    between atoms: _202  and  _204
REMARK   87  A    between atoms: _204  and  _205
REMARK   88  A    between atoms: _204  and  _207
REMARK   89  A    between atoms: _207  and  _208
REMARK   90  A    between atoms: _211  and  _213
REMARK   91  A    between atoms: _213  and  _214
REMARK   92  A    between atoms: _216  and  _218
REMARK   93  A    between atoms: _218  and  _219
REMARK   94  A    between atoms: _218  and  _221
REMARK   95  A    between atoms: _221  and  _222
REMARK   96  A    between atoms: _227  and  _228
REMARK   97  A    between atoms: _230  and  _232
REMARK   98  A    between atoms: _232  and  _233
REMARK   99  A    between atoms: _232  and  _235
REMARK  100  A    between atoms: _235  and  _236
REMARK  101  A    between atoms: _239  and  _241
REMARK  102  A    between atoms: _241  and  _242
REMARK  103  A    between atoms: _241  and  _244
REMARK  104  A    between atoms: _244  and  _245
REMARK  105  A    between atoms: _248  and  _250
REMARK  106  A    between atoms: _250  and  _251
REMARK  107  A    between atoms: _250  and  _253
REMARK  108  A    between atoms: _253  and  _254
REMARK  109  A    between atoms: _257  and  _259
REMARK  110  A    between atoms: _259  and  _260
REMARK  111  A    between atoms: _259  and  _262
REMARK  112  A    between atoms: _262  and  _263
REMARK  113  A    between atoms: _268  and  _269
REMARK  114  A    between atoms: _271  and  _273
REMARK  115  A    between atoms: _273  and  _274
REMARK  116  A    between atoms: _273  and  _276
REMARK  117  A    between atoms: _276  and  _277
REMARK  118  A    between atoms: _277  and  _278
REMARK  119  A    between atoms: _283  and  _285
REMARK  120  A    between atoms: _285  and  _286
REMARK  121  A    between atoms: _289  and  _291
REMARK  122  A    between atoms: _291  and  _292
REMARK  123  A    between atoms: _291  and  _294
REMARK  124  A    between atoms: _294  and  _295
REMARK  125  A    between atoms: _297  and  _299
REMARK  126  A    between atoms: _299  and  _300
REMARK  127  A    between atoms: _302  and  _304
REMARK  128  A    between atoms: _304  and  _305
REMARK  129  A    between atoms: _307  and  _309
REMARK  130  A    between atoms: _309  and  _310
REMARK  131  A    between atoms: _309  and  _312
REMARK  132  A    between atoms: _312  and  _313
REMARK  133  A    between atoms: _315  and  _317
REMARK  134  A    between atoms: _317  and  _318
REMARK  135  A    between atoms: _317  and  _320
REMARK  136  A    between atoms: _320  and  _321
REMARK  137  A    between atoms: _324  and  _326
REMARK  138  A    between atoms: _326  and  _327
REMARK  139  A    between atoms: _326  and  _329
REMARK  140  A    between atoms: _329  and  _330
REMARK  141  A    between atoms: _333  and  _335
REMARK  142  A    between atoms: _335  and  _336
REMARK  143  A    between atoms: _335  and  _338
REMARK  144  A    between atoms: _338  and  _339
REMARK  145  A    between atoms: _342  and  _344
REMARK  146  A    between atoms: _344  and  _345
REMARK  147  A    between atoms: _344  and  _347
REMARK  148  A    between atoms: _347  and  _348
REMARK  149  A    between atoms: _354  and  _356
REMARK  150  A    between atoms: _356  and  _357
REMARK  151  A    between atoms: _356  and  _359
REMARK  152  A    between atoms: _359  and  _360
REMARK  153  A    between atoms: _360  and  _361
REMARK  154  A    between atoms: _364  and  _366
REMARK  155  A    between atoms: _366  and  _367
REMARK  156  A    between atoms: _366  and  _369
REMARK  157  A    between atoms: _369  and  _370
REMARK  158  A    between atoms: _373  and  _375
REMARK  159  A    between atoms: _375  and  _376
REMARK  160  A    between atoms: _375  and  _378
REMARK  161  A    between atoms: _378  and  _379
REMARK                            x       y       z     vdW  Elec       q    Type
REMARK                         _______ _______ _______ _____ _____    ______ ____
ROOT
ATOM      1  CA  THR A   1     -10.471  21.128  -3.734  0.00  0.00    +0.160 C 
ENDROOT
BRANCH   1   2
ATOM      2  N   THR A   1     -10.430  21.685  -2.381  0.00  0.00    -0.237 NA
ATOM      3  H   THR A   1      -9.531  22.040  -1.996  0.00  0.00    +0.142 HD
ENDBRANCH   1   2
BRANCH   1   4
ATOM      4  C   THR A   1     -10.639  19.596  -3.743  0.00  0.00    +0.227 C 
ATOM      5  O   THR A   1     -11.498  19.070  -4.469  0.00  0.00    -0.287 OA
ENDBRANCH   1   4
BRANCH   1   6
ATOM      6  CB  THR A   1      -9.200  21.521  -4.570  0.00  0.00    +0.134 C 
ATOM      7  CG2 THR A   1      -9.024  23.050  -4.603  0.00  0.00    +0.034 C 
BRANCH   6   8
ATOM      8  OG1 THR A   1      -8.029  20.931  -3.991  0.00  0.00    -0.383 OA
ATOM      9  HG1 THR A   1      -7.922  21.257  -3.062  0.00  0.00    +0.210 HD
ENDBRANCH   6   8
ENDBRANCH   1   6
TORSDOF 4
REMARK  Name = ../refined-set-2016/1hdq/1hdq_pocket.pdb
REMARK  161 active torsions:
REMARK  status: ('A' for Active; 'I' for Inactive)
REMARK    1  A    between atoms: _1  and  _3
REMARK    2  A    between atoms: _3  and  _4
REMARK    3  A    between atoms: _3  and  _6
REMARK    4  A    between atoms: _6  and  _7
REMARK    5  A    between atoms: _10  and  _12
REMARK    6  A    between atoms: _12  and  _13
REMARK    7  A    between atoms: _12  and  _15
REMARK    8  A    between atoms: _15  and  _16
REMARK    9  A    between atoms: _17  and  ZN_385
REMARK   10  A    between atoms: _21  and  _23
REMARK   11  A    between atoms: _23  and  _24
REMARK   12  A    between atoms: _23  and  _26
REMARK   13  A    between atoms: _26  and  _27
REMARK   14  A    between atoms: _27  and  _28
REMARK   15  A    between atoms: _28  and  _29
REMARK   16  A    between atoms: _38  and  _40
REMARK   17  A    between atoms: _40  and  _41
REMARK   18  A    between atoms: _40  and  _43
REMARK   19  A    between atoms: _43  and  _44
REMARK   20  A    between atoms: _44  and  _45
REMARK   21  A    between atoms: _48  and  _50
REMARK   22  A    between atoms: _50  and  _51
REMARK   23  A    between atoms: _50  and  _53
REMARK   24  A    between atoms: _53  and  _54
REMARK   25  A    between atoms: _57  and  _59
REMARK   26  A    between atoms: _59  and  _60
REMARK   27  A    between atoms: _59  and  _62
REMARK   28  A    between atoms: _62  and  _63
REMARK   29  A    between atoms: _63  and  _64
REMARK   30  A    between atoms: _64  and  _65
REMARK   31  A    between atoms: _74  and  _76
REMARK   32  A    between atoms: _76  and  _77
REMARK   33  A    between atoms: _76  and  _79
REMARK   34  A    between atoms: _79  and  _80
REMARK   35  A    between atoms: _83  and  _85
REMARK   36  A    between atoms: _85  and  _86
REMARK   37  A    between atoms: _85  and  _88
REMARK   38  A    between atoms: _88  and  _89
REMARK   39  A    between atoms: _94  and  _96
REMARK   40  A    between atoms: _96  and  _97
REMARK   41  A    between atoms: _96  and  _99
REMARK   42  A    between atoms: _99  and  _100
REMARK   43  A    between atoms: _100  and  _101
REMARK   44  A    between atoms: _101  and  _102
REMARK   45  A    between atoms: _111  and  _113
REMARK   46  A    between atoms: _113  and  _114
REMARK   47  A    between atoms: _116  and  _118
REMARK   48  A    between atoms: _118  and  _119
REMARK   49  A    between atoms: _118  and  _121
REMARK   50  A    between atoms: _121  and  _122
REMARK   51  A    between atoms: _122  and  _123
REMARK   52  A    between atoms: _126  and  _128
REMARK   53  A    between atoms: _128  and  _129
REMARK   54  A    between atoms: _128  and  _131
REMARK   55  A    between atoms: _131  and  _132
REMARK   56  A    between atoms: _135  and  _137
REMARK   57  A    between atoms: _137  and  _138
REMARK   58  A    between atoms: _137  and  _140
REMARK   59  A    between atoms: _140  and  _141
REMARK   60  A    between atoms: _143  and  _145
REMARK   61  A    between atoms: _145  and  _146
REMARK   62  A    between atoms: _145  and  _148
REMARK   63  A    between atoms: _148  and  _149
REMARK   64  A    between atoms: _152  and  _154
REMARK   65  A    between atoms: _154  and  _155
REMARK   66  A    between atoms: _154  and  _157
REMARK   67  A    between atoms: _157  and  _158
REMARK   68  A    between atoms: _159  and  ZN_385
REMARK   69  A    between atoms: _163  and  _165
REMARK   70  A    between atoms: _165  and  _166
REMARK   71  A    between atoms: _165  and  _168
REMARK   72  A    between atoms: _168  and  _169
REMARK   73  A    between atoms: _171  and  _173
REMARK   74  A    between atoms: _173  and  _174
REMARK   75  A    between atoms: _173  and  _176
REMARK   76  A    between atoms: _176  and  _177
REMARK   77  A    between atoms: _182  and  _183
REMARK   78  A    between atoms: _185  and  _187
REMARK   79  A    between atoms: _187  and  _188
REMARK   80  A    between atoms: _187  and  _190
REMARK   81  A    between atoms: _190  and  _191
REMARK   82  A    between atoms: _193  and  _195
REMARK   83  A    between atoms: _195  and  _196
REMARK   84  A    between atoms: _195  and  _198
REMARK   85  A    between atoms: _198  and  _199
REMARK   86  A    between atoms: _202  and  _204
REMARK   87  A    between atoms: _204  and  _205
REMARK   88  A    between atoms: _204  and  _207
REMARK   89  A    between atoms: _207  and  _208
REMARK   90  A    between atoms: _211  and  _213
REMARK   91  A    between atoms: _213  and  _214
REMARK   92  A    between atoms: _216  and  _218
REMARK   93  A    between atoms: _218  and  _219
REMARK   94  A    between atoms: _218  and  _221
REMARK   95  A    between atoms: _221  and  _222
REMARK   96  A    between atoms: _227  and  _228
REMARK   97  A    between atoms: _230  and  _232
REMARK   98  A    between atoms: _232  and  _233
REMARK   99  A    between atoms: _232  and  _235
REMARK  100  A    between atoms: _235  and  _236
REMARK  101  A    between atoms: _239  and  _241
REMARK  102  A    between atoms: _241  and  _242
REMARK  103  A    between atoms: _241  and  _244
REMARK  104  A    between atoms: _244  and  _245
REMARK  105  A    between atoms: _248  and  _250
REMARK  106  A    between atoms: _250  and  _251
REMARK  107  A    between atoms: _250  and  _253
REMARK  108  A    between atoms: _253  and  _254
REMARK  109  A    between atoms: _257  and  _259
REMARK  110  A    between atoms: _259  and  _260
REMARK  111  A    between atoms: _259  and  _262
REMARK  112  A    between atoms: _262  and  _263
REMARK  113  A    between atoms: _268  and  _269
REMARK  114  A    between atoms: _271  and  _273
REMARK  115  A    between atoms: _273  and  _274
REMARK  116  A    between atoms: _273  and  _276
REMARK  117  A    between atoms: _276  and  _277
REMARK  118  A    between atoms: _277  and  _278
REMARK  119  A    between atoms: _283  and  _285
REMARK  120  A    between atoms: _285  and  _286
REMARK  121  A    between atoms: _289  and  _291
REMARK  122  A    between atoms: _291  and  _292
REMARK  123  A    between atoms: _291  and  _294
REMARK  124  A    between atoms: _294  and  _295
REMARK  125  A    between atoms: _297  and  _299
REMARK  126  A    between atoms: _299  and  _300
REMARK  127  A    between atoms: _302  and  _304
REMARK  128  A    between atoms: _304  and  _305
REMARK  129  A    between atoms: _307  and  _309
REMARK  130  A    between atoms: _309  and  _310
REMARK  131  A    between atoms: _309  and  _312
REMARK  132  A    between atoms: _312  and  _313
REMARK  133  A    between atoms: _315  and  _317
REMARK  134  A    between atoms: _317  and  _318
REMARK  135  A    between atoms: _317  and  _320
REMARK  136  A    between atoms: _320  and  _321
REMARK  137  A    between atoms: _324  and  _326
REMARK  138  A    between atoms: _326  and  _327
REMARK  139  A    between atoms: _326  and  _329
REMARK  140  A    between atoms: _329  and  _330
REMARK  141  A    between atoms: _333  and  _335
REMARK  142  A    between atoms: _335  and  _336
REMARK  143  A    between atoms: _335  and  _338
REMARK  144  A    between atoms: _338  and  _339
REMARK  145  A    between atoms: _342  and  _344
REMARK  146  A    between atoms: _344  and  _345
REMARK  147  A    between atoms: _344  and  _347
REMARK  148  A    between atoms: _347  and  _348
REMARK  149  A    between atoms: _354  and  _356
REMARK  150  A    between atoms: _356  and  _357
REMARK  151  A    between atoms: _356  and  _359
REMARK  152  A    between atoms: _359  and  _360
REMARK  153  A    between atoms: _360  and  _361
REMARK  154  A    between atoms: _364  and  _366
REMARK  155  A    between atoms: _366  and  _367
REMARK  156  A    between atoms: _366  and  _369
REMARK  157  A    between atoms: _369  and  _370
REMARK  158  A    between atoms: _373  and  _375
REMARK  159  A    between atoms: _375  and  _376
REMARK  160  A    between atoms: _375  and  _378
REMARK  161  A    between atoms: _378  and  _379
REMARK                            x       y       z     vdW  Elec       q    Type
REMARK                         _______ _______ _______ _____ _____    ______ ____
ROOT
ATOM      1  NE  ARG A   1       1.786  27.450  -2.432  0.00  0.00    -0.265 N 
ATOM      2  HE  ARG A   1       0.865  27.647  -1.990  0.00  0.00    +0.259 HD
ATOM      3  CZ  ARG A   1       1.929  27.736  -3.723  0.00  0.00    +0.342 C 
ATOM      4  NH2 ARG A   1       3.083  27.505  -4.332  0.00  0.00    -0.292 N 
ATOM      5 HH21 ARG A   1       3.879  27.099  -3.800  0.00  0.00    +0.255 HD
ATOM      6 HH22 ARG A   1       3.192  27.730  -5.342  0.00  0.00    +0.255 HD
ATOM      7  NH1 ARG A   1       0.916  28.256  -4.403  0.00  0.00    -0.292 N 
ATOM      8 HH11 ARG A   1       0.010  28.440  -3.927  0.00  0.00    +0.255 HD
ATOM      9 HH12 ARG A   1       1.028  28.480  -5.413  0.00  0.00    +0.255 HD
ENDROOT
BRANCH   1  10
ATOM     10  CD  ARG A   1       2.835  26.878  -1.594  0.00  0.00    +0.174 C 
BRANCH  10  11
ATOM     11  CG  ARG A   1       2.956  25.366  -1.749  0.00  0.00    +0.045 C 
BRANCH  11  12
ATOM     12  CB  ARG A   1       1.671  24.660  -1.330  0.00  0.00    +0.029 C 
BRANCH  12  13
ATOM     13  CA  ARG A   1       1.863  23.190  -0.944  0.00  0.00    +0.133 C 
BRANCH  13  14
ATOM     14  N   ARG A   1       2.500  23.099   0.370  0.00  0.00    -0.239 NA
ATOM     15  H   ARG A   1       3.458  23.479   0.508  0.00  0.00    +0.142 HD
ENDBRANCH  13  14
BRANCH  13  16
ATOM     16  C   ARG A   1       2.588  22.476  -2.084  0.00  0.00    +0.224 C 
ATOM     17  O   ARG A   1       1.964  22.093  -3.071  0.00  0.00    -0.287 OA
ENDBRANCH  13  16
ENDBRANCH  12  13
ENDBRANCH  11  12
ENDBRANCH  10  11
ENDBRANCH   1  10
TORSDOF 6
REMARK  Name = ../refined-set-2016/1hdq/1hdq_pocket.pdb
REMARK  161 active torsions:
REMARK  status: ('A' for Active; 'I' for Inactive)
REMARK    1  A    between atoms: _1  and  _3
REMARK    2  A    between atoms: _3  and  _4
REMARK    3  A    between atoms: _3  and  _6
REMARK    4  A    between atoms: _6  and  _7
REMARK    5  A    between atoms: _10  and  _12
REMARK    6  A    between atoms: _12  and  _13
REMARK    7  A    between atoms: _12  and  _15
REMARK    8  A    between atoms: _15  and  _16
REMARK    9  A    between atoms: _17  and  ZN_385
REMARK   10  A    between atoms: _21  and  _23
REMARK   11  A    between atoms: _23  and  _24
REMARK   12  A    between atoms: _23  and  _26
REMARK   13  A    between atoms: _26  and  _27
REMARK   14  A    between atoms: _27  and  _28
REMARK   15  A    between atoms: _28  and  _29
REMARK   16  A    between atoms: _38  and  _40
REMARK   17  A    between atoms: _40  and  _41
REMARK   18  A    between atoms: _40  and  _43
REMARK   19  A    between atoms: _43  and  _44
REMARK   20  A    between atoms: _44  and  _45
REMARK   21  A    between atoms: _48  and  _50
REMARK   22  A    between atoms: _50  and  _51
REMARK   23  A    between atoms: _50  and  _53
REMARK   24  A    between atoms: _53  and  _54
REMARK   25  A    between atoms: _57  and  _59
REMARK   26  A    between atoms: _59  and  _60
REMARK   27  A    between atoms: _59  and  _62
REMARK   28  A    between atoms: _62  and  _63
REMARK   29  A    between atoms: _63  and  _64
REMARK   30  A    between atoms: _64  and  _65
REMARK   31  A    between atoms: _74  and  _76
REMARK   32  A    between atoms: _76  and  _77
REMARK   33  A    between atoms: _76  and  _79
REMARK   34  A    between atoms: _79  and  _80
REMARK   35  A    between atoms: _83  and  _85
REMARK   36  A    between atoms: _85  and  _86
REMARK   37  A    between atoms: _85  and  _88
REMARK   38  A    between atoms: _88  and  _89
REMARK   39  A    between atoms: _94  and  _96
REMARK   40  A    between atoms: _96  and  _97
REMARK   41  A    between atoms: _96  and  _99
REMARK   42  A    between atoms: _99  and  _100
REMARK   43  A    between atoms: _100  and  _101
REMARK   44  A    between atoms: _101  and  _102
REMARK   45  A    between atoms: _111  and  _113
REMARK   46  A    between atoms: _113  and  _114
REMARK   47  A    between atoms: _116  and  _118
REMARK   48  A    between atoms: _118  and  _119
REMARK   49  A    between atoms: _118  and  _121
REMARK   50  A    between atoms: _121  and  _122
REMARK   51  A    between atoms: _122  and  _123
REMARK   52  A    between atoms: _126  and  _128
REMARK   53  A    between atoms: _128  and  _129
REMARK   54  A    between atoms: _128  and  _131
REMARK   55  A    between atoms: _131  and  _132
REMARK   56  A    between atoms: _135  and  _137
REMARK   57  A    between atoms: _137  and  _138
REMARK   58  A    between atoms: _137  and  _140
REMARK   59  A    between atoms: _140  and  _141
REMARK   60  A    between atoms: _143  and  _145
REMARK   61  A    between atoms: _145  and  _146
REMARK   62  A    between atoms: _145  and  _148
REMARK   63  A    between atoms: _148  and  _149
REMARK   64  A    between atoms: _152  and  _154
REMARK   65  A    between atoms: _154  and  _155
REMARK   66  A    between atoms: _154  and  _157
REMARK   67  A    between atoms: _157  and  _158
REMARK   68  A    between atoms: _159  and  ZN_385
REMARK   69  A    between atoms: _163  and  _165
REMARK   70  A    between atoms: _165  and  _166
REMARK   71  A    between atoms: _165  and  _168
REMARK   72  A    between atoms: _168  and  _169
REMARK   73  A    between atoms: _171  and  _173
REMARK   74  A    between atoms: _173  and  _174
REMARK   75  A    between atoms: _173  and  _176
REMARK   76  A    between atoms: _176  and  _177
REMARK   77  A    between atoms: _182  and  _183
REMARK   78  A    between atoms: _185  and  _187
REMARK   79  A    between atoms: _187  and  _188
REMARK   80  A    between atoms: _187  and  _190
REMARK   81  A    between atoms: _190  and  _191
REMARK   82  A    between atoms: _193  and  _195
REMARK   83  A    between atoms: _195  and  _196
REMARK   84  A    between atoms: _195  and  _198
REMARK   85  A    between atoms: _198  and  _199
REMARK   86  A    between atoms: _202  and  _204
REMARK   87  A    between atoms: _204  and  _205
REMARK   88  A    between atoms: _204  and  _207
REMARK   89  A    between atoms: _207  and  _208
REMARK   90  A    between atoms: _211  and  _213
REMARK   91  A    between atoms: _213  and  _214
REMARK   92  A    between atoms: _216  and  _218
REMARK   93  A    between atoms: _218  and  _219
REMARK   94  A    between atoms: _218  and  _221
REMARK   95  A    between atoms: _221  and  _222
REMARK   96  A    between atoms: _227  and  _228
REMARK   97  A    between atoms: _230  and  _232
REMARK   98  A    between atoms: _232  and  _233
REMARK   99  A    between atoms: _232  and  _235
REMARK  100  A    between atoms: _235  and  _236
REMARK  101  A    between atoms: _239  and  _241
REMARK  102  A    between atoms: _241  and  _242
REMARK  103  A    between atoms: _241  and  _244
REMARK  104  A    between atoms: _244  and  _245
REMARK  105  A    between atoms: _248  and  _250
REMARK  106  A    between atoms: _250  and  _251
REMARK  107  A    between atoms: _250  and  _253
REMARK  108  A    between atoms: _253  and  _254
REMARK  109  A    between atoms: _257  and  _259
REMARK  110  A    between atoms: _259  and  _260
REMARK  111  A    between atoms: _259  and  _262
REMARK  112  A    between atoms: _262  and  _263
REMARK  113  A    between atoms: _268  and  _269
REMARK  114  A    between atoms: _271  and  _273
REMARK  115  A    between atoms: _273  and  _274
REMARK  116  A    between atoms: _273  and  _276
REMARK  117  A    between atoms: _276  and  _277
REMARK  118  A    between atoms: _277  and  _278
REMARK  119  A    between atoms: _283  and  _285
REMARK  120  A    between atoms: _285  and  _286
REMARK  121  A    between atoms: _289  and  _291
REMARK  122  A    between atoms: _291  and  _292
REMARK  123  A    between atoms: _291  and  _294
REMARK  124  A    between atoms: _294  and  _295
REMARK  125  A    between atoms: _297  and  _299
REMARK  126  A    between atoms: _299  and  _300
REMARK  127  A    between atoms: _302  and  _304
REMARK  128  A    between atoms: _304  and  _305
REMARK  129  A    between atoms: _307  and  _309
REMARK  130  A    between atoms: _309  and  _310
REMARK  131  A    between atoms: _309  and  _312
REMARK  132  A    between atoms: _312  and  _313
REMARK  133  A    between atoms: _315  and  _317
REMARK  134  A    between atoms: _317  and  _318
REMARK  135  A    between atoms: _317  and  _320
REMARK  136  A    between atoms: _320  and  _321
REMARK  137  A    between atoms: _324  and  _326
REMARK  138  A    between atoms: _326  and  _327
REMARK  139  A    between atoms: _326  and  _329
REMARK  140  A    between atoms: _329  and  _330
REMARK  141  A    between atoms: _333  and  _335
REMARK  142  A    between atoms: _335  and  _336
REMARK  143  A    between atoms: _335  and  _338
REMARK  144  A    between atoms: _338  and  _339
REMARK  145  A    between atoms: _342  and  _344
REMARK  146  A    between atoms: _344  and  _345
REMARK  147  A    between atoms: _344  and  _347
REMARK  148  A    between atoms: _347  and  _348
REMARK  149  A    between atoms: _354  and  _356
REMARK  150  A    between atoms: _356  and  _357
REMARK  151  A    between atoms: _356  and  _359
REMARK  152  A    between atoms: _359  and  _360
REMARK  153  A    between atoms: _360  and  _361
REMARK  154  A    between atoms: _364  and  _366
REMARK  155  A    between atoms: _366  and  _367
REMARK  156  A    between atoms: _366  and  _369
REMARK  157  A    between atoms: _369  and  _370
REMARK  158  A    between atoms: _373  and  _375
REMARK  159  A    between atoms: _375  and  _376
REMARK  160  A    between atoms: _375  and  _378
REMARK  161  A    between atoms: _378  and  _379
REMARK                            x       y       z     vdW  Elec       q    Type
REMARK                         _______ _______ _______ _____ _____    ______ ____
ROOT
ATOM      1  CA  ASP A   1       5.537  24.090  -6.991  0.00  0.00    +0.144 C 
ENDROOT
BRANCH   1   2
ATOM      2  N   ASP A   1       6.892  23.575  -6.843  0.00  0.00    -0.239 NA
ATOM      3  H   ASP A   1       7.699  24.167  -7.127  0.00  0.00    +0.142 HD
ENDBRANCH   1   2
BRANCH   1   4
ATOM      4  C   ASP A   1       5.067  23.447  -8.291  0.00  0.00    +0.225 C 
ATOM      5  O   ASP A   1       5.455  23.875  -9.380  0.00  0.00    -0.287 OA
ENDBRANCH   1   4
BRANCH   1   6
ATOM      6  CB  ASP A   1       5.535  25.614  -7.146  0.00  0.00    +0.139 C 
BRANCH   6   7
ATOM      7  CG  ASP A   1       4.127  26.188  -7.254  0.00  0.00    +0.367 C 
ATOM      8  OD2 ASP A   1       3.923  27.347  -6.842  0.00  0.00    -0.246 OA
ATOM      9  OD1 ASP A   1       3.225  25.492  -7.761  0.00  0.00    -0.246 OA
ENDBRANCH   6   7
ENDBRANCH   1   6
TORSDOF 4
REMARK  Name = ../refined-set-2016/1hdq/1hdq_pocket.pdb
REMARK  161 active torsions:
REMARK  status: ('A' for Active; 'I' for Inactive)
REMARK    1  A    between atoms: _1  and  _3
REMARK    2  A    between atoms: _3  and  _4
REMARK    3  A    between atoms: _3  and  _6
REMARK    4  A    between atoms: _6  and  _7
REMARK    5  A    between atoms: _10  and  _12
REMARK    6  A    between atoms: _12  and  _13
REMARK    7  A    between atoms: _12  and  _15
REMARK    8  A    between atoms: _15  and  _16
REMARK    9  A    between atoms: _17  and  ZN_385
REMARK   10  A    between atoms: _21  and  _23
REMARK   11  A    between atoms: _23  and  _24
REMARK   12  A    between atoms: _23  and  _26
REMARK   13  A    between atoms: _26  and  _27
REMARK   14  A    between atoms: _27  and  _28
REMARK   15  A    between atoms: _28  and  _29
REMARK   16  A    between atoms: _38  and  _40
REMARK   17  A    between atoms: _40  and  _41
REMARK   18  A    between atoms: _40  and  _43
REMARK   19  A    between atoms: _43  and  _44
REMARK   20  A    between atoms: _44  and  _45
REMARK   21  A    between atoms: _48  and  _50
REMARK   22  A    between atoms: _50  and  _51
REMARK   23  A    between atoms: _50  and  _53
REMARK   24  A    between atoms: _53  and  _54
REMARK   25  A    between atoms: _57  and  _59
REMARK   26  A    between atoms: _59  and  _60
REMARK   27  A    between atoms: _59  and  _62
REMARK   28  A    between atoms: _62  and  _63
REMARK   29  A    between atoms: _63  and  _64
REMARK   30  A    between atoms: _64  and  _65
REMARK   31  A    between atoms: _74  and  _76
REMARK   32  A    between atoms: _76  and  _77
REMARK   33  A    between atoms: _76  and  _79
REMARK   34  A    between atoms: _79  and  _80
REMARK   35  A    between atoms: _83  and  _85
REMARK   36  A    between atoms: _85  and  _86
REMARK   37  A    between atoms: _85  and  _88
REMARK   38  A    between atoms: _88  and  _89
REMARK   39  A    between atoms: _94  and  _96
REMARK   40  A    between atoms: _96  and  _97
REMARK   41  A    between atoms: _96  and  _99
REMARK   42  A    between atoms: _99  and  _100
REMARK   43  A    between atoms: _100  and  _101
REMARK   44  A    between atoms: _101  and  _102
REMARK   45  A    between atoms: _111  and  _113
REMARK   46  A    between atoms: _113  and  _114
REMARK   47  A    between atoms: _116  and  _118
REMARK   48  A    between atoms: _118  and  _119
REMARK   49  A    between atoms: _118  and  _121
REMARK   50  A    between atoms: _121  and  _122
REMARK   51  A    between atoms: _122  and  _123
REMARK   52  A    between atoms: _126  and  _128
REMARK   53  A    between atoms: _128  and  _129
REMARK   54  A    between atoms: _128  and  _131
REMARK   55  A    between atoms: _131  and  _132
REMARK   56  A    between atoms: _135  and  _137
REMARK   57  A    between atoms: _137  and  _138
REMARK   58  A    between atoms: _137  and  _140
REMARK   59  A    between atoms: _140  and  _141
REMARK   60  A    between atoms: _143  and  _145
REMARK   61  A    between atoms: _145  and  _146
REMARK   62  A    between atoms: _145  and  _148
REMARK   63  A    between atoms: _148  and  _149
REMARK   64  A    between atoms: _152  and  _154
REMARK   65  A    between atoms: _154  and  _155
REMARK   66  A    between atoms: _154  and  _157
REMARK   67  A    between atoms: _157  and  _158
REMARK   68  A    between atoms: _159  and  ZN_385
REMARK   69  A    between atoms: _163  and  _165
REMARK   70  A    between atoms: _165  and  _166
REMARK   71  A    between atoms: _165  and  _168
REMARK   72  A    between atoms: _168  and  _169
REMARK   73  A    between atoms: _171  and  _173
REMARK   74  A    between atoms: _173  and  _174
REMARK   75  A    between atoms: _173  and  _176
REMARK   76  A    between atoms: _176  and  _177
REMARK   77  A    between atoms: _182  and  _183
REMARK   78  A    between atoms: _185  and  _187
REMARK   79  A    between atoms: _187  and  _188
REMARK   80  A    between atoms: _187  and  _190
REMARK   81  A    between atoms: _190  and  _191
REMARK   82  A    between atoms: _193  and  _195
REMARK   83  A    between atoms: _195  and  _196
REMARK   84  A    between atoms: _195  and  _198
REMARK   85  A    between atoms: _198  and  _199
REMARK   86  A    between atoms: _202  and  _204
REMARK   87  A    between atoms: _204  and  _205
REMARK   88  A    between atoms: _204  and  _207
REMARK   89  A    between atoms: _207  and  _208
REMARK   90  A    between atoms: _211  and  _213
REMARK   91  A    between atoms: _213  and  _214
REMARK   92  A    between atoms: _216  and  _218
REMARK   93  A    between atoms: _218  and  _219
REMARK   94  A    between atoms: _218  and  _221
REMARK   95  A    between atoms: _221  and  _222
REMARK   96  A    between atoms: _227  and  _228
REMARK   97  A    between atoms: _230  and  _232
REMARK   98  A    between atoms: _232  and  _233
REMARK   99  A    between atoms: _232  and  _235
REMARK  100  A    between atoms: _235  and  _236
REMARK  101  A    between atoms: _239  and  _241
REMARK  102  A    between atoms: _241  and  _242
REMARK  103  A    between atoms: _241  and  _244
REMARK  104  A    between atoms: _244  and  _245
REMARK  105  A    between atoms: _248  and  _250
REMARK  106  A    between atoms: _250  and  _251
REMARK  107  A    between atoms: _250  and  _253
REMARK  108  A    between atoms: _253  and  _254
REMARK  109  A    between atoms: _257  and  _259
REMARK  110  A    between atoms: _259  and  _260
REMARK  111  A    between atoms: _259  and  _262
REMARK  112  A    between atoms: _262  and  _263
REMARK  113  A    between atoms: _268  and  _269
REMARK  114  A    between atoms: _271  and  _273
REMARK  115  A    between atoms: _273  and  _274
REMARK  116  A    between atoms: _273  and  _276
REMARK  117  A    between atoms: _276  and  _277
REMARK  118  A    between atoms: _277  and  _278
REMARK  119  A    between atoms: _283  and  _285
REMARK  120  A    between atoms: _285  and  _286
REMARK  121  A    between atoms: _289  and  _291
REMARK  122  A    between atoms: _291  and  _292
REMARK  123  A    between atoms: _291  and  _294
REMARK  124  A    between atoms: _294  and  _295
REMARK  125  A    between atoms: _297  and  _299
REMARK  126  A    between atoms: _299  and  _300
REMARK  127  A    between atoms: _302  and  _304
REMARK  128  A    between atoms: _304  and  _305
REMARK  129  A    between atoms: _307  and  _309
REMARK  130  A    between atoms: _309  and  _310
REMARK  131  A    between atoms: _309  and  _312
REMARK  132  A    between atoms: _312  and  _313
REMARK  133  A    between atoms: _315  and  _317
REMARK  134  A    between atoms: _317  and  _318
REMARK  135  A    between atoms: _317  and  _320
REMARK  136  A    between atoms: _320  and  _321
REMARK  137  A    between atoms: _324  and  _326
REMARK  138  A    between atoms: _326  and  _327
REMARK  139  A    between atoms: _326  and  _329
REMARK  140  A    between atoms: _329  and  _330
REMARK  141  A    between atoms: _333  and  _335
REMARK  142  A    between atoms: _335  and  _336
REMARK  143  A    between atoms: _335  and  _338
REMARK  144  A    between atoms: _338  and  _339
REMARK  145  A    between atoms: _342  and  _344
REMARK  146  A    between atoms: _344  and  _345
REMARK  147  A    between atoms: _344  and  _347
REMARK  148  A    between atoms: _347  and  _348
REMARK  149  A    between atoms: _354  and  _356
REMARK  150  A    between atoms: _356  and  _357
REMARK  151  A    between atoms: _356  and  _359
REMARK  152  A    between atoms: _359  and  _360
REMARK  153  A    between atoms: _360  and  _361
REMARK  154  A    between atoms: _364  and  _366
REMARK  155  A    between atoms: _366  and  _367
REMARK  156  A    between atoms: _366  and  _369
REMARK  157  A    between atoms: _369  and  _370
REMARK  158  A    between atoms: _373  and  _375
REMARK  159  A    between atoms: _375  and  _376
REMARK  160  A    between atoms: _375  and  _378
REMARK  161  A    between atoms: _378  and  _379
REMARK                            x       y       z     vdW  Elec       q    Type
REMARK                         _______ _______ _______ _____ _____    ______ ____
ROOT
ATOM      1  CA  ARG A   2       5.053  26.319 -12.090  0.00  0.00    +0.137 C 
ENDROOT
BRANCH   1   3
ATOM      2  C   ASN A   1       2.747  25.678 -11.559  0.00  0.00    +0.239 C 
ATOM      3  N   ARG A   2       4.051  25.425 -11.520  0.00  0.00    -0.298 N 
ATOM      4  H   ARG A   2       4.372  24.549 -11.062  0.00  0.00    +0.150 HD
ATOM      5  O   ASN A   1       2.272  26.701 -12.056  0.00  0.00    -0.274 OA
BRANCH   2   6
ATOM      6  CA  ASN A   1       1.848  24.600 -10.951  0.00  0.00    +0.154 C 
BRANCH   6   7
ATOM      7  N   ASN A   1       2.536  23.744  -9.982  0.00  0.00    -0.238 NA
ATOM      8  H   ASN A   1       2.624  24.039  -8.989  0.00  0.00    +0.142 HD
ENDBRANCH   6   7
BRANCH   6   9
ATOM      9  CB  ASN A   1       0.593  25.242 -10.348  0.00  0.00    +0.111 C 
BRANCH   9  10
ATOM     10  CG  ASN A   1      -0.381  25.715 -11.423  0.00  0.00    +0.221 C 
ATOM     11  ND2 ASN A   1      -1.018  26.855 -11.195  0.00  0.00    -0.329 N 
ATOM     12 HD21 ASN A   1      -0.839  27.384 -10.318  0.00  0.00    +0.145 HD
ATOM     13 HD22 ASN A   1      -1.697  27.220 -11.893  0.00  0.00    +0.145 HD
ATOM     14  OD1 ASN A   1      -0.557  25.049 -12.447  0.00  0.00    -0.275 OA
ENDBRANCH   9  10
ENDBRANCH   6   9
ENDBRANCH   2   6
ENDBRANCH   1   3
BRANCH   1  15
ATOM     15  C   ARG A   2       6.098  25.454 -12.803  0.00  0.00    +0.227 C 
ATOM     16  O   ARG A   2       7.100  25.955 -13.316  0.00  0.00    -0.286 OA
ENDBRANCH   1  15
BRANCH   1  17
ATOM     17  CB  ARG A   2       5.715  27.160 -10.988  0.00  0.00    +0.031 C 
BRANCH  17  18
ATOM     18  CG  ARG A   2       4.837  28.301 -10.478  0.00  0.00    +0.045 C 
BRANCH  18  19
ATOM     19  CD  ARG A   2       5.589  29.204  -9.512  0.00  0.00    +0.174 C 
BRANCH  19  20
ATOM     20  NE  ARG A   2       4.910  30.485  -9.309  0.00  0.00    -0.265 N 
ATOM     21  CZ  ARG A   2       3.720  30.628  -8.727  0.00  0.00    +0.342 C 
ATOM     22  NH2 ARG A   2       3.057  29.569  -8.274  0.00  0.00    -0.292 N 
ATOM     23 HH21 ARG A   2       2.129  29.691  -7.821  0.00  0.00    +0.255 HD
ATOM     24 HH22 ARG A   2       3.466  28.618  -8.372  0.00  0.00    +0.255 HD
ATOM     25  NH1 ARG A   2       3.190  31.835  -8.603  0.00  0.00    -0.292 N 
ATOM     26 HH11 ARG A   2       2.261  31.951  -8.149  0.00  0.00    +0.255 HD
ATOM     27 HH12 ARG A   2       3.702  32.667  -8.959  0.00  0.00    +0.255 HD
ATOM     28  HE  ARG A   2       5.391  31.345  -9.643  0.00  0.00    +0.259 HD
ENDBRANCH  19  20
ENDBRANCH  18  19
ENDBRANCH  17  18
ENDBRANCH   1  17
TORSDOF 10
REMARK  Name = ../refined-set-2016/1hdq/1hdq_pocket.pdb
REMARK  161 active torsions:
REMARK  status: ('A' for Active; 'I' for Inactive)
REMARK    1  A    between atoms: _1  and  _3
REMARK    2  A    between atoms: _3  and  _4
REMARK    3  A    between atoms: _3  and  _6
REMARK    4  A    between atoms: _6  and  _7
REMARK    5  A    between atoms: _10  and  _12
REMARK    6  A    between atoms: _12  and  _13
REMARK    7  A    between atoms: _12  and  _15
REMARK    8  A    between atoms: _15  and  _16
REMARK    9  A    between atoms: _17  and  ZN_385
REMARK   10  A    between atoms: _21  and  _23
REMARK   11  A    between atoms: _23  and  _24
REMARK   12  A    between atoms: _23  and  _26
REMARK   13  A    between atoms: _26  and  _27
REMARK   14  A    between atoms: _27  and  _28
REMARK   15  A    between atoms: _28  and  _29
REMARK   16  A    between atoms: _38  and  _40
REMARK   17  A    between atoms: _40  and  _41
REMARK   18  A    between atoms: _40  and  _43
REMARK   19  A    between atoms: _43  and  _44
REMARK   20  A    between atoms: _44  and  _45
REMARK   21  A    between atoms: _48  and  _50
REMARK   22  A    between atoms: _50  and  _51
REMARK   23  A    between atoms: _50  and  _53
REMARK   24  A    between atoms: _53  and  _54
REMARK   25  A    between atoms: _57  and  _59
REMARK   26  A    between atoms: _59  and  _60
REMARK   27  A    between atoms: _59  and  _62
REMARK   28  A    between atoms: _62  and  _63
REMARK   29  A    between atoms: _63  and  _64
REMARK   30  A    between atoms: _64  and  _65
REMARK   31  A    between atoms: _74  and  _76
REMARK   32  A    between atoms: _76  and  _77
REMARK   33  A    between atoms: _76  and  _79
REMARK   34  A    between atoms: _79  and  _80
REMARK   35  A    between atoms: _83  and  _85
REMARK   36  A    between atoms: _85  and  _86
REMARK   37  A    between atoms: _85  and  _88
REMARK   38  A    between atoms: _88  and  _89
REMARK   39  A    between atoms: _94  and  _96
REMARK   40  A    between atoms: _96  and  _97
REMARK   41  A    between atoms: _96  and  _99
REMARK   42  A    between atoms: _99  and  _100
REMARK   43  A    between atoms: _100  and  _101
REMARK   44  A    between atoms: _101  and  _102
REMARK   45  A    between atoms: _111  and  _113
REMARK   46  A    between atoms: _113  and  _114
REMARK   47  A    between atoms: _116  and  _118
REMARK   48  A    between atoms: _118  and  _119
REMARK   49  A    between atoms: _118  and  _121
REMARK   50  A    between atoms: _121  and  _122
REMARK   51  A    between atoms: _122  and  _123
REMARK   52  A    between atoms: _126  and  _128
REMARK   53  A    between atoms: _128  and  _129
REMARK   54  A    between atoms: _128  and  _131
REMARK   55  A    between atoms: _131  and  _132
REMARK   56  A    between atoms: _135  and  _137
REMARK   57  A    between atoms: _137  and  _138
REMARK   58  A    between atoms: _137  and  _140
REMARK   59  A    between atoms: _140  and  _141
REMARK   60  A    between atoms: _143  and  _145
REMARK   61  A    between atoms: _145  and  _146
REMARK   62  A    between atoms: _145  and  _148
REMARK   63  A    between atoms: _148  and  _149
REMARK   64  A    between atoms: _152  and  _154
REMARK   65  A    between atoms: _154  and  _155
REMARK   66  A    between atoms: _154  and  _157
REMARK   67  A    between atoms: _157  and  _158
REMARK   68  A    between atoms: _159  and  ZN_385
REMARK   69  A    between atoms: _163  and  _165
REMARK   70  A    between atoms: _165  and  _166
REMARK   71  A    between atoms: _165  and  _168
REMARK   72  A    between atoms: _168  and  _169
REMARK   73  A    between atoms: _171  and  _173
REMARK   74  A    between atoms: _173  and  _174
REMARK   75  A    between atoms: _173  and  _176
REMARK   76  A    between atoms: _176  and  _177
REMARK   77  A    between atoms: _182  and  _183
REMARK   78  A    between atoms: _185  and  _187
REMARK   79  A    between atoms: _187  and  _188
REMARK   80  A    between atoms: _187  and  _190
REMARK   81  A    between atoms: _190  and  _191
REMARK   82  A    between atoms: _193  and  _195
REMARK   83  A    between atoms: _195  and  _196
REMARK   84  A    between atoms: _195  and  _198
REMARK   85  A    between atoms: _198  and  _199
REMARK   86  A    between atoms: _202  and  _204
REMARK   87  A    between atoms: _204  and  _205
REMARK   88  A    between atoms: _204  and  _207
REMARK   89  A    between atoms: _207  and  _208
REMARK   90  A    between atoms: _211  and  _213
REMARK   91  A    between atoms: _213  and  _214
REMARK   92  A    between atoms: _216  and  _218
REMARK   93  A    between atoms: _218  and  _219
REMARK   94  A    between atoms: _218  and  _221
REMARK   95  A    between atoms: _221  and  _222
REMARK   96  A    between atoms: _227  and  _228
REMARK   97  A    between atoms: _230  and  _232
REMARK   98  A    between atoms: _232  and  _233
REMARK   99  A    between atoms: _232  and  _235
REMARK  100  A    between atoms: _235  and  _236
REMARK  101  A    between atoms: _239  and  _241
REMARK  102  A    between atoms: _241  and  _242
REMARK  103  A    between atoms: _241  and  _244
REMARK  104  A    between atoms: _244  and  _245
REMARK  105  A    between atoms: _248  and  _250
REMARK  106  A    between atoms: _250  and  _251
REMARK  107  A    between atoms: _250  and  _253
REMARK  108  A    between atoms: _253  and  _254
REMARK  109  A    between atoms: _257  and  _259
REMARK  110  A    between atoms: _259  and  _260
REMARK  111  A    between atoms: _259  and  _262
REMARK  112  A    between atoms: _262  and  _263
REMARK  113  A    between atoms: _268  and  _269
REMARK  114  A    between atoms: _271  and  _273
REMARK  115  A    between atoms: _273  and  _274
REMARK  116  A    between atoms: _273  and  _276
REMARK  117  A    between atoms: _276  and  _277
REMARK  118  A    between atoms: _277  and  _278
REMARK  119  A    between atoms: _283  and  _285
REMARK  120  A    between atoms: _285  and  _286
REMARK  121  A    between atoms: _289  and  _291
REMARK  122  A    between atoms: _291  and  _292
REMARK  123  A    between atoms: _291  and  _294
REMARK  124  A    between atoms: _294  and  _295
REMARK  125  A    between atoms: _297  and  _299
REMARK  126  A    between atoms: _299  and  _300
REMARK  127  A    between atoms: _302  and  _304
REMARK  128  A    between atoms: _304  and  _305
REMARK  129  A    between atoms: _307  and  _309
REMARK  130  A    between atoms: _309  and  _310
REMARK  131  A    between atoms: _309  and  _312
REMARK  132  A    between atoms: _312  and  _313
REMARK  133  A    between atoms: _315  and  _317
REMARK  134  A    between atoms: _317  and  _318
REMARK  135  A    between atoms: _317  and  _320
REMARK  136  A    between atoms: _320  and  _321
REMARK  137  A    between atoms: _324  and  _326
REMARK  138  A    between atoms: _326  and  _327
REMARK  139  A    between atoms: _326  and  _329
REMARK  140  A    between atoms: _329  and  _330
REMARK  141  A    between atoms: _333  and  _335
REMARK  142  A    between atoms: _335  and  _336
REMARK  143  A    between atoms: _335  and  _338
REMARK  144  A    between atoms: _338  and  _339
REMARK  145  A    between atoms: _342  and  _344
REMARK  146  A    between atoms: _344  and  _345
REMARK  147  A    between atoms: _344  and  _347
REMARK  148  A    between atoms: _347  and  _348
REMARK  149  A    between atoms: _354  and  _356
REMARK  150  A    between atoms: _356  and  _357
REMARK  151  A    between atoms: _356  and  _359
REMARK  152  A    between atoms: _359  and  _360
REMARK  153  A    between atoms: _360  and  _361
REMARK  154  A    between atoms: _364  and  _366
REMARK  155  A    between atoms: _366  and  _367
REMARK  156  A    between atoms: _366  and  _369
REMARK  157  A    between atoms: _369  and  _370
REMARK  158  A    between atoms: _373  and  _375
REMARK  159  A    between atoms: _375  and  _376
REMARK  160  A    between atoms: _375  and  _378
REMARK  161  A    between atoms: _378  and  _379
REMARK                            x       y       z     vdW  Elec       q    Type
REMARK                         _______ _______ _______ _____ _____    ______ ____
ROOT
ATOM      1  CA  GLY A   1       6.682  34.572 -12.033  0.00  0.00    +0.156 C 
ENDROOT
BRANCH   1   2
ATOM      2  N   GLY A   1       7.927  35.088 -12.571  0.00  0.00    -0.238 NA
ATOM      3  H   GLY A   1       8.689  35.379 -11.925  0.00  0.00    +0.142 HD
ENDBRANCH   1   2
BRANCH   1   4
ATOM      4  C   GLY A   1       6.871  33.245 -11.324  0.00  0.00    +0.226 C 
ATOM      5  O   GLY A   1       5.898  32.578 -10.974  0.00  0.00    -0.287 OA
ENDBRANCH   1   4
TORSDOF 2
REMARK  Name = ../refined-set-2016/1hdq/1hdq_pocket.pdb
REMARK  161 active torsions:
REMARK  status: ('A' for Active; 'I' for Inactive)
REMARK    1  A    between atoms: _1  and  _3
REMARK    2  A    between atoms: _3  and  _4
REMARK    3  A    between atoms: _3  and  _6
REMARK    4  A    between atoms: _6  and  _7
REMARK    5  A    between atoms: _10  and  _12
REMARK    6  A    between atoms: _12  and  _13
REMARK    7  A    between atoms: _12  and  _15
REMARK    8  A    between atoms: _15  and  _16
REMARK    9  A    between atoms: _17  and  ZN_385
REMARK   10  A    between atoms: _21  and  _23
REMARK   11  A    between atoms: _23  and  _24
REMARK   12  A    between atoms: _23  and  _26
REMARK   13  A    between atoms: _26  and  _27
REMARK   14  A    between atoms: _27  and  _28
REMARK   15  A    between atoms: _28  and  _29
REMARK   16  A    between atoms: _38  and  _40
REMARK   17  A    between atoms: _40  and  _41
REMARK   18  A    between atoms: _40  and  _43
REMARK   19  A    between atoms: _43  and  _44
REMARK   20  A    between atoms: _44  and  _45
REMARK   21  A    between atoms: _48  and  _50
REMARK   22  A    between atoms: _50  and  _51
REMARK   23  A    between atoms: _50  and  _53
REMARK   24  A    between atoms: _53  and  _54
REMARK   25  A    between atoms: _57  and  _59
REMARK   26  A    between atoms: _59  and  _60
REMARK   27  A    between atoms: _59  and  _62
REMARK   28  A    between atoms: _62  and  _63
REMARK   29  A    between atoms: _63  and  _64
REMARK   30  A    between atoms: _64  and  _65
REMARK   31  A    between atoms: _74  and  _76
REMARK   32  A    between atoms: _76  and  _77
REMARK   33  A    between atoms: _76  and  _79
REMARK   34  A    between atoms: _79  and  _80
REMARK   35  A    between atoms: _83  and  _85
REMARK   36  A    between atoms: _85  and  _86
REMARK   37  A    between atoms: _85  and  _88
REMARK   38  A    between atoms: _88  and  _89
REMARK   39  A    between atoms: _94  and  _96
REMARK   40  A    between atoms: _96  and  _97
REMARK   41  A    between atoms: _96  and  _99
REMARK   42  A    between atoms: _99  and  _100
REMARK   43  A    between atoms: _100  and  _101
REMARK   44  A    between atoms: _101  and  _102
REMARK   45  A    between atoms: _111  and  _113
REMARK   46  A    between atoms: _113  and  _114
REMARK   47  A    between atoms: _116  and  _118
REMARK   48  A    between atoms: _118  and  _119
REMARK   49  A    between atoms: _118  and  _121
REMARK   50  A    between atoms: _121  and  _122
REMARK   51  A    between atoms: _122  and  _123
REMARK   52  A    between atoms: _126  and  _128
REMARK   53  A    between atoms: _128  and  _129
REMARK   54  A    between atoms: _128  and  _131
REMARK   55  A    between atoms: _131  and  _132
REMARK   56  A    between atoms: _135  and  _137
REMARK   57  A    between atoms: _137  and  _138
REMARK   58  A    between atoms: _137  and  _140
REMARK   59  A    between atoms: _140  and  _141
REMARK   60  A    between atoms: _143  and  _145
REMARK   61  A    between atoms: _145  and  _146
REMARK   62  A    between atoms: _145  and  _148
REMARK   63  A    between atoms: _148  and  _149
REMARK   64  A    between atoms: _152  and  _154
REMARK   65  A    between atoms: _154  and  _155
REMARK   66  A    between atoms: _154  and  _157
REMARK   67  A    between atoms: _157  and  _158
REMARK   68  A    between atoms: _159  and  ZN_385
REMARK   69  A    between atoms: _163  and  _165
REMARK   70  A    between atoms: _165  and  _166
REMARK   71  A    between atoms: _165  and  _168
REMARK   72  A    between atoms: _168  and  _169
REMARK   73  A    between atoms: _171  and  _173
REMARK   74  A    between atoms: _173  and  _174
REMARK   75  A    between atoms: _173  and  _176
REMARK   76  A    between atoms: _176  and  _177
REMARK   77  A    between atoms: _182  and  _183
REMARK   78  A    between atoms: _185  and  _187
REMARK   79  A    between atoms: _187  and  _188
REMARK   80  A    between atoms: _187  and  _190
REMARK   81  A    between atoms: _190  and  _191
REMARK   82  A    between atoms: _193  and  _195
REMARK   83  A    between atoms: _195  and  _196
REMARK   84  A    between atoms: _195  and  _198
REMARK   85  A    between atoms: _198  and  _199
REMARK   86  A    between atoms: _202  and  _204
REMARK   87  A    between atoms: _204  and  _205
REMARK   88  A    between atoms: _204  and  _207
REMARK   89  A    between atoms: _207  and  _208
REMARK   90  A    between atoms: _211  and  _213
REMARK   91  A    between atoms: _213  and  _214
REMARK   92  A    between atoms: _216  and  _218
REMARK   93  A    between atoms: _218  and  _219
REMARK   94  A    between atoms: _218  and  _221
REMARK   95  A    between atoms: _221  and  _222
REMARK   96  A    between atoms: _227  and  _228
REMARK   97  A    between atoms: _230  and  _232
REMARK   98  A    between atoms: _232  and  _233
REMARK   99  A    between atoms: _232  and  _235
REMARK  100  A    between atoms: _235  and  _236
REMARK  101  A    between atoms: _239  and  _241
REMARK  102  A    between atoms: _241  and  _242
REMARK  103  A    between atoms: _241  and  _244
REMARK  104  A    between atoms: _244  and  _245
REMARK  105  A    between atoms: _248  and  _250
REMARK  106  A    between atoms: _250  and  _251
REMARK  107  A    between atoms: _250  and  _253
REMARK  108  A    between atoms: _253  and  _254
REMARK  109  A    between atoms: _257  and  _259
REMARK  110  A    between atoms: _259  and  _260
REMARK  111  A    between atoms: _259  and  _262
REMARK  112  A    between atoms: _262  and  _263
REMARK  113  A    between atoms: _268  and  _269
REMARK  114  A    between atoms: _271  and  _273
REMARK  115  A    between atoms: _273  and  _274
REMARK  116  A    between atoms: _273  and  _276
REMARK  117  A    between atoms: _276  and  _277
REMARK  118  A    between atoms: _277  and  _278
REMARK  119  A    between atoms: _283  and  _285
REMARK  120  A    between atoms: _285  and  _286
REMARK  121  A    between atoms: _289  and  _291
REMARK  122  A    between atoms: _291  and  _292
REMARK  123  A    between atoms: _291  and  _294
REMARK  124  A    between atoms: _294  and  _295
REMARK  125  A    between atoms: _297  and  _299
REMARK  126  A    between atoms: _299  and  _300
REMARK  127  A    between atoms: _302  and  _304
REMARK  128  A    between atoms: _304  and  _305
REMARK  129  A    between atoms: _307  and  _309
REMARK  130  A    between atoms: _309  and  _310
REMARK  131  A    between atoms: _309  and  _312
REMARK  132  A    between atoms: _312  and  _313
REMARK  133  A    between atoms: _315  and  _317
REMARK  134  A    between atoms: _317  and  _318
REMARK  135  A    between atoms: _317  and  _320
REMARK  136  A    between atoms: _320  and  _321
REMARK  137  A    between atoms: _324  and  _326
REMARK  138  A    between atoms: _326  and  _327
REMARK  139  A    between atoms: _326  and  _329
REMARK  140  A    between atoms: _329  and  _330
REMARK  141  A    between atoms: _333  and  _335
REMARK  142  A    between atoms: _335  and  _336
REMARK  143  A    between atoms: _335  and  _338
REMARK  144  A    between atoms: _338  and  _339
REMARK  145  A    between atoms: _342  and  _344
REMARK  146  A    between atoms: _344  and  _345
REMARK  147  A    between atoms: _344  and  _347
REMARK  148  A    between atoms: _347  and  _348
REMARK  149  A    between atoms: _354  and  _356
REMARK  150  A    between atoms: _356  and  _357
REMARK  151  A    between atoms: _356  and  _359
REMARK  152  A    between atoms: _359  and  _360
REMARK  153  A    between atoms: _360  and  _361
REMARK  154  A    between atoms: _364  and  _366
REMARK  155  A    between atoms: _366  and  _367
REMARK  156  A    between atoms: _366  and  _369
REMARK  157  A    between atoms: _369  and  _370
REMARK  158  A    between atoms: _373  and  _375
REMARK  159  A    between atoms: _375  and  _376
REMARK  160  A    between atoms: _375  and  _378
REMARK  161  A    between atoms: _378  and  _379
REMARK                            x       y       z     vdW  Elec       q    Type
REMARK                         _______ _______ _______ _____ _____    ______ ____
ROOT
ATOM      1  C   GLU A   1       6.938  28.120  -3.456  0.00  0.00    +0.238 C 
ATOM      2  O   GLU A   1       6.025  27.366  -3.791  0.00  0.00    -0.274 OA
ATOM      3  N   THR A   2       7.575  28.899  -4.321  0.00  0.00    -0.296 N 
ATOM      4  H   THR A   2       8.341  29.517  -3.985  0.00  0.00    +0.150 HD
ENDROOT
BRANCH   1   5
ATOM      5  CA  GLU A   1       7.401  28.198  -1.998  0.00  0.00    +0.145 C 
BRANCH   5   6
ATOM      6  N   GLU A   1       8.743  28.766  -1.945  0.00  0.00    -0.238 NA
ATOM      7  H   GLU A   1       8.872  29.713  -1.535  0.00  0.00    +0.142 HD
ENDBRANCH   5   6
BRANCH   5   8
ATOM      8  CB  GLU A   1       6.422  29.071  -1.200  0.00  0.00    +0.038 C 
BRANCH   8   9
ATOM      9  CG  GLU A   1       6.474  28.886   0.308  0.00  0.00    +0.116 C 
BRANCH   9  10
ATOM     10  CD  GLU A   1       5.920  27.542   0.745  0.00  0.00    +0.365 C 
ATOM     11  OE2 GLU A   1       4.805  27.514   1.304  0.00  0.00    -0.246 OA
ATOM     12  OE1 GLU A   1       6.586  26.511   0.523  0.00  0.00    -0.246 OA
ENDBRANCH   9  10
ENDBRANCH   8   9
ENDBRANCH   5   8
ENDBRANCH   1   5
BRANCH   3  13
ATOM     13  CA  THR A   2       7.218  28.902  -5.732  0.00  0.00    +0.164 C 
BRANCH  13  14
ATOM     14  CB  THR A   2       6.797  30.318  -6.195  0.00  0.00    +0.136 C 
ATOM     15  CG2 THR A   2       5.547  30.772  -5.445  0.00  0.00    +0.034 C 
BRANCH  14  16
ATOM     16  OG1 THR A   2       7.855  31.246  -5.937  0.00  0.00    -0.382 OA
ATOM     17  HG1 THR A   2       8.049  31.262  -4.966  0.00  0.00    +0.210 HD
ENDBRANCH  14  16
ENDBRANCH  13  14
BRANCH  13  18
ATOM     18  C   THR A   2       8.342  28.384  -6.631  0.00  0.00    +0.229 C 
ATOM     19  O   THR A   2       8.448  28.779  -7.793  0.00  0.00    -0.286 OA
ENDBRANCH  13  18
ENDBRANCH   3  13
TORSDOF 9
REMARK  Name = ../refined-set-2016/1hdq/1hdq_pocket.pdb
REMARK  161 active torsions:
REMARK  status: ('A' for Active; 'I' for Inactive)
REMARK    1  A    between atoms: _1  and  _3
REMARK    2  A    between atoms: _3  and  _4
REMARK    3  A    between atoms: _3  and  _6
REMARK    4  A    between atoms: _6  and  _7
REMARK    5  A    between atoms: _10  and  _12
REMARK    6  A    between atoms: _12  and  _13
REMARK    7  A    between atoms: _12  and  _15
REMARK    8  A    between atoms: _15  and  _16
REMARK    9  A    between atoms: _17  and  ZN_385
REMARK   10  A    between atoms: _21  and  _23
REMARK   11  A    between atoms: _23  and  _24
REMARK   12  A    between atoms: _23  and  _26
REMARK   13  A    between atoms: _26  and  _27
REMARK   14  A    between atoms: _27  and  _28
REMARK   15  A    between atoms: _28  and  _29
REMARK   16  A    between atoms: _38  and  _40
REMARK   17  A    between atoms: _40  and  _41
REMARK   18  A    between atoms: _40  and  _43
REMARK   19  A    between atoms: _43  and  _44
REMARK   20  A    between atoms: _44  and  _45
REMARK   21  A    between atoms: _48  and  _50
REMARK   22  A    between atoms: _50  and  _51
REMARK   23  A    between atoms: _50  and  _53
REMARK   24  A    between atoms: _53  and  _54
REMARK   25  A    between atoms: _57  and  _59
REMARK   26  A    between atoms: _59  and  _60
REMARK   27  A    between atoms: _59  and  _62
REMARK   28  A    between atoms: _62  and  _63
REMARK   29  A    between atoms: _63  and  _64
REMARK   30  A    between atoms: _64  and  _65
REMARK   31  A    between atoms: _74  and  _76
REMARK   32  A    between atoms: _76  and  _77
REMARK   33  A    between atoms: _76  and  _79
REMARK   34  A    between atoms: _79  and  _80
REMARK   35  A    between atoms: _83  and  _85
REMARK   36  A    between atoms: _85  and  _86
REMARK   37  A    between atoms: _85  and  _88
REMARK   38  A    between atoms: _88  and  _89
REMARK   39  A    between atoms: _94  and  _96
REMARK   40  A    between atoms: _96  and  _97
REMARK   41  A    between atoms: _96  and  _99
REMARK   42  A    between atoms: _99  and  _100
REMARK   43  A    between atoms: _100  and  _101
REMARK   44  A    between atoms: _101  and  _102
REMARK   45  A    between atoms: _111  and  _113
REMARK   46  A    between atoms: _113  and  _114
REMARK   47  A    between atoms: _116  and  _118
REMARK   48  A    between atoms: _118  and  _119
REMARK   49  A    between atoms: _118  and  _121
REMARK   50  A    between atoms: _121  and  _122
REMARK   51  A    between atoms: _122  and  _123
REMARK   52  A    between atoms: _126  and  _128
REMARK   53  A    between atoms: _128  and  _129
REMARK   54  A    between atoms: _128  and  _131
REMARK   55  A    between atoms: _131  and  _132
REMARK   56  A    between atoms: _135  and  _137
REMARK   57  A    between atoms: _137  and  _138
REMARK   58  A    between atoms: _137  and  _140
REMARK   59  A    between atoms: _140  and  _141
REMARK   60  A    between atoms: _143  and  _145
REMARK   61  A    between atoms: _145  and  _146
REMARK   62  A    between atoms: _145  and  _148
REMARK   63  A    between atoms: _148  and  _149
REMARK   64  A    between atoms: _152  and  _154
REMARK   65  A    between atoms: _154  and  _155
REMARK   66  A    between atoms: _154  and  _157
REMARK   67  A    between atoms: _157  and  _158
REMARK   68  A    between atoms: _159  and  ZN_385
REMARK   69  A    between atoms: _163  and  _165
REMARK   70  A    between atoms: _165  and  _166
REMARK   71  A    between atoms: _165  and  _168
REMARK   72  A    between atoms: _168  and  _169
REMARK   73  A    between atoms: _171  and  _173
REMARK   74  A    between atoms: _173  and  _174
REMARK   75  A    between atoms: _173  and  _176
REMARK   76  A    between atoms: _176  and  _177
REMARK   77  A    between atoms: _182  and  _183
REMARK   78  A    between atoms: _185  and  _187
REMARK   79  A    between atoms: _187  and  _188
REMARK   80  A    between atoms: _187  and  _190
REMARK   81  A    between atoms: _190  and  _191
REMARK   82  A    between atoms: _193  and  _195
REMARK   83  A    between atoms: _195  and  _196
REMARK   84  A    between atoms: _195  and  _198
REMARK   85  A    between atoms: _198  and  _199
REMARK   86  A    between atoms: _202  and  _204
REMARK   87  A    between atoms: _204  and  _205
REMARK   88  A    between atoms: _204  and  _207
REMARK   89  A    between atoms: _207  and  _208
REMARK   90  A    between atoms: _211  and  _213
REMARK   91  A    between atoms: _213  and  _214
REMARK   92  A    between atoms: _216  and  _218
REMARK   93  A    between atoms: _218  and  _219
REMARK   94  A    between atoms: _218  and  _221
REMARK   95  A    between atoms: _221  and  _222
REMARK   96  A    between atoms: _227  and  _228
REMARK   97  A    between atoms: _230  and  _232
REMARK   98  A    between atoms: _232  and  _233
REMARK   99  A    between atoms: _232  and  _235
REMARK  100  A    between atoms: _235  and  _236
REMARK  101  A    between atoms: _239  and  _241
REMARK  102  A    between atoms: _241  and  _242
REMARK  103  A    between atoms: _241  and  _244
REMARK  104  A    between atoms: _244  and  _245
REMARK  105  A    between atoms: _248  and  _250
REMARK  106  A    between atoms: _250  and  _251
REMARK  107  A    between atoms: _250  and  _253
REMARK  108  A    between atoms: _253  and  _254
REMARK  109  A    between atoms: _257  and  _259
REMARK  110  A    between atoms: _259  and  _260
REMARK  111  A    between atoms: _259  and  _262
REMARK  112  A    between atoms: _262  and  _263
REMARK  113  A    between atoms: _268  and  _269
REMARK  114  A    between atoms: _271  and  _273
REMARK  115  A    between atoms: _273  and  _274
REMARK  116  A    between atoms: _273  and  _276
REMARK  117  A    between atoms: _276  and  _277
REMARK  118  A    between atoms: _277  and  _278
REMARK  119  A    between atoms: _283  and  _285
REMARK  120  A    between atoms: _285  and  _286
REMARK  121  A    between atoms: _289  and  _291
REMARK  122  A    between atoms: _291  and  _292
REMARK  123  A    between atoms: _291  and  _294
REMARK  124  A    between atoms: _294  and  _295
REMARK  125  A    between atoms: _297  and  _299
REMARK  126  A    between atoms: _299  and  _300
REMARK  127  A    between atoms: _302  and  _304
REMARK  128  A    between atoms: _304  and  _305
REMARK  129  A    between atoms: _307  and  _309
REMARK  130  A    between atoms: _309  and  _310
REMARK  131  A    between atoms: _309  and  _312
REMARK  132  A    between atoms: _312  and  _313
REMARK  133  A    between atoms: _315  and  _317
REMARK  134  A    between atoms: _317  and  _318
REMARK  135  A    between atoms: _317  and  _320
REMARK  136  A    between atoms: _320  and  _321
REMARK  137  A    between atoms: _324  and  _326
REMARK  138  A    between atoms: _326  and  _327
REMARK  139  A    between atoms: _326  and  _329
REMARK  140  A    between atoms: _329  and  _330
REMARK  141  A    between atoms: _333  and  _335
REMARK  142  A    between atoms: _335  and  _336
REMARK  143  A    between atoms: _335  and  _338
REMARK  144  A    between atoms: _338  and  _339
REMARK  145  A    between atoms: _342  and  _344
REMARK  146  A    between atoms: _344  and  _345
REMARK  147  A    between atoms: _344  and  _347
REMARK  148  A    between atoms: _347  and  _348
REMARK  149  A    between atoms: _354  and  _356
REMARK  150  A    between atoms: _356  and  _357
REMARK  151  A    between atoms: _356  and  _359
REMARK  152  A    between atoms: _359  and  _360
REMARK  153  A    between atoms: _360  and  _361
REMARK  154  A    between atoms: _364  and  _366
REMARK  155  A    between atoms: _366  and  _367
REMARK  156  A    between atoms: _366  and  _369
REMARK  157  A    between atoms: _369  and  _370
REMARK  158  A    between atoms: _373  and  _375
REMARK  159  A    between atoms: _375  and  _376
REMARK  160  A    between atoms: _375  and  _378
REMARK  161  A    between atoms: _378  and  _379
REMARK                            x       y       z     vdW  Elec       q    Type
REMARK                         _______ _______ _______ _____ _____    ______ ____
ROOT
ATOM      1  CA  LEU A   1     -11.651  33.792  -9.046  0.00  0.00    +0.133 C 
ENDROOT
BRANCH   1   2
ATOM      2  N   LEU A   1     -11.972  33.263  -7.725  0.00  0.00    -0.239 NA
ATOM      3  H   LEU A   1     -11.623  32.317  -7.471  0.00  0.00    +0.142 HD
ENDBRANCH   1   2
BRANCH   1   4
ATOM      4  C   LEU A   1     -11.789  32.716 -10.119  0.00  0.00    +0.224 C 
ATOM      5  O   LEU A   1     -11.650  31.530  -9.836  0.00  0.00    -0.287 OA
ENDBRANCH   1   4
BRANCH   1   6
ATOM      6  CB  LEU A   1     -10.206  34.300  -9.069  0.00  0.00    +0.025 C 
BRANCH   6   7
ATOM      7  CG  LEU A   1      -9.779  35.385  -8.078  0.00  0.00    +0.002 C 
ATOM      8  CD2 LEU A   1      -8.260  35.484  -8.061  0.00  0.00    +0.000 C 
ATOM      9  CD1 LEU A   1     -10.408  36.716  -8.462  0.00  0.00    +0.000 C 
ENDBRANCH   6   7
ENDBRANCH   1   6
TORSDOF 4
REMARK  Name = ../refined-set-2016/1hdq/1hdq_pocket.pdb
REMARK  161 active torsions:
REMARK  status: ('A' for Active; 'I' for Inactive)
REMARK    1  A    between atoms: _1  and  _3
REMARK    2  A    between atoms: _3  and  _4
REMARK    3  A    between atoms: _3  and  _6
REMARK    4  A    between atoms: _6  and  _7
REMARK    5  A    between atoms: _10  and  _12
REMARK    6  A    between atoms: _12  and  _13
REMARK    7  A    between atoms: _12  and  _15
REMARK    8  A    between atoms: _15  and  _16
REMARK    9  A    between atoms: _17  and  ZN_385
REMARK   10  A    between atoms: _21  and  _23
REMARK   11  A    between atoms: _23  and  _24
REMARK   12  A    between atoms: _23  and  _26
REMARK   13  A    between atoms: _26  and  _27
REMARK   14  A    between atoms: _27  and  _28
REMARK   15  A    between atoms: _28  and  _29
REMARK   16  A    between atoms: _38  and  _40
REMARK   17  A    between atoms: _40  and  _41
REMARK   18  A    between atoms: _40  and  _43
REMARK   19  A    between atoms: _43  and  _44
REMARK   20  A    between atoms: _44  and  _45
REMARK   21  A    between atoms: _48  and  _50
REMARK   22  A    between atoms: _50  and  _51
REMARK   23  A    between atoms: _50  and  _53
REMARK   24  A    between atoms: _53  and  _54
REMARK   25  A    between atoms: _57  and  _59
REMARK   26  A    between atoms: _59  and  _60
REMARK   27  A    between atoms: _59  and  _62
REMARK   28  A    between atoms: _62  and  _63
REMARK   29  A    between atoms: _63  and  _64
REMARK   30  A    between atoms: _64  and  _65
REMARK   31  A    between atoms: _74  and  _76
REMARK   32  A    between atoms: _76  and  _77
REMARK   33  A    between atoms: _76  and  _79
REMARK   34  A    between atoms: _79  and  _80
REMARK   35  A    between atoms: _83  and  _85
REMARK   36  A    between atoms: _85  and  _86
REMARK   37  A    between atoms: _85  and  _88
REMARK   38  A    between atoms: _88  and  _89
REMARK   39  A    between atoms: _94  and  _96
REMARK   40  A    between atoms: _96  and  _97
REMARK   41  A    between atoms: _96  and  _99
REMARK   42  A    between atoms: _99  and  _100
REMARK   43  A    between atoms: _100  and  _101
REMARK   44  A    between atoms: _101  and  _102
REMARK   45  A    between atoms: _111  and  _113
REMARK   46  A    between atoms: _113  and  _114
REMARK   47  A    between atoms: _116  and  _118
REMARK   48  A    between atoms: _118  and  _119
REMARK   49  A    between atoms: _118  and  _121
REMARK   50  A    between atoms: _121  and  _122
REMARK   51  A    between atoms: _122  and  _123
REMARK   52  A    between atoms: _126  and  _128
REMARK   53  A    between atoms: _128  and  _129
REMARK   54  A    between atoms: _128  and  _131
REMARK   55  A    between atoms: _131  and  _132
REMARK   56  A    between atoms: _135  and  _137
REMARK   57  A    between atoms: _137  and  _138
REMARK   58  A    between atoms: _137  and  _140
REMARK   59  A    between atoms: _140  and  _141
REMARK   60  A    between atoms: _143  and  _145
REMARK   61  A    between atoms: _145  and  _146
REMARK   62  A    between atoms: _145  and  _148
REMARK   63  A    between atoms: _148  and  _149
REMARK   64  A    between atoms: _152  and  _154
REMARK   65  A    between atoms: _154  and  _155
REMARK   66  A    between atoms: _154  and  _157
REMARK   67  A    between atoms: _157  and  _158
REMARK   68  A    between atoms: _159  and  ZN_385
REMARK   69  A    between atoms: _163  and  _165
REMARK   70  A    between atoms: _165  and  _166
REMARK   71  A    between atoms: _165  and  _168
REMARK   72  A    between atoms: _168  and  _169
REMARK   73  A    between atoms: _171  and  _173
REMARK   74  A    between atoms: _173  and  _174
REMARK   75  A    between atoms: _173  and  _176
REMARK   76  A    between atoms: _176  and  _177
REMARK   77  A    between atoms: _182  and  _183
REMARK   78  A    between atoms: _185  and  _187
REMARK   79  A    between atoms: _187  and  _188
REMARK   80  A    between atoms: _187  and  _190
REMARK   81  A    between atoms: _190  and  _191
REMARK   82  A    between atoms: _193  and  _195
REMARK   83  A    between atoms: _195  and  _196
REMARK   84  A    between atoms: _195  and  _198
REMARK   85  A    between atoms: _198  and  _199
REMARK   86  A    between atoms: _202  and  _204
REMARK   87  A    between atoms: _204  and  _205
REMARK   88  A    between atoms: _204  and  _207
REMARK   89  A    between atoms: _207  and  _208
REMARK   90  A    between atoms: _211  and  _213
REMARK   91  A    between atoms: _213  and  _214
REMARK   92  A    between atoms: _216  and  _218
REMARK   93  A    between atoms: _218  and  _219
REMARK   94  A    between atoms: _218  and  _221
REMARK   95  A    between atoms: _221  and  _222
REMARK   96  A    between atoms: _227  and  _228
REMARK   97  A    between atoms: _230  and  _232
REMARK   98  A    between atoms: _232  and  _233
REMARK   99  A    between atoms: _232  and  _235
REMARK  100  A    between atoms: _235  and  _236
REMARK  101  A    between atoms: _239  and  _241
REMARK  102  A    between atoms: _241  and  _242
REMARK  103  A    between atoms: _241  and  _244
REMARK  104  A    between atoms: _244  and  _245
REMARK  105  A    between atoms: _248  and  _250
REMARK  106  A    between atoms: _250  and  _251
REMARK  107  A    between atoms: _250  and  _253
REMARK  108  A    between atoms: _253  and  _254
REMARK  109  A    between atoms: _257  and  _259
REMARK  110  A    between atoms: _259  and  _260
REMARK  111  A    between atoms: _259  and  _262
REMARK  112  A    between atoms: _262  and  _263
REMARK  113  A    between atoms: _268  and  _269
REMARK  114  A    between atoms: _271  and  _273
REMARK  115  A    between atoms: _273  and  _274
REMARK  116  A    between atoms: _273  and  _276
REMARK  117  A    between atoms: _276  and  _277
REMARK  118  A    between atoms: _277  and  _278
REMARK  119  A    between atoms: _283  and  _285
REMARK  120  A    between atoms: _285  and  _286
REMARK  121  A    between atoms: _289  and  _291
REMARK  122  A    between atoms: _291  and  _292
REMARK  123  A    between atoms: _291  and  _294
REMARK  124  A    between atoms: _294  and  _295
REMARK  125  A    between atoms: _297  and  _299
REMARK  126  A    between atoms: _299  and  _300
REMARK  127  A    between atoms: _302  and  _304
REMARK  128  A    between atoms: _304  and  _305
REMARK  129  A    between atoms: _307  and  _309
REMARK  130  A    between atoms: _309  and  _310
REMARK  131  A    between atoms: _309  and  _312
REMARK  132  A    between atoms: _312  and  _313
REMARK  133  A    between atoms: _315  and  _317
REMARK  134  A    between atoms: _317  and  _318
REMARK  135  A    between atoms: _317  and  _320
REMARK  136  A    between atoms: _320  and  _321
REMARK  137  A    between atoms: _324  and  _326
REMARK  138  A    between atoms: _326  and  _327
REMARK  139  A    between atoms: _326  and  _329
REMARK  140  A    between atoms: _329  and  _330
REMARK  141  A    between atoms: _333  and  _335
REMARK  142  A    between atoms: _335  and  _336
REMARK  143  A    between atoms: _335  and  _338
REMARK  144  A    between atoms: _338  and  _339
REMARK  145  A    between atoms: _342  and  _344
REMARK  146  A    between atoms: _344  and  _345
REMARK  147  A    between atoms: _344  and  _347
REMARK  148  A    between atoms: _347  and  _348
REMARK  149  A    between atoms: _354  and  _356
REMARK  150  A    between atoms: _356  and  _357
REMARK  151  A    between atoms: _356  and  _359
REMARK  152  A    between atoms: _359  and  _360
REMARK  153  A    between atoms: _360  and  _361
REMARK  154  A    between atoms: _364  and  _366
REMARK  155  A    between atoms: _366  and  _367
REMARK  156  A    between atoms: _366  and  _369
REMARK  157  A    between atoms: _369  and  _370
REMARK  158  A    between atoms: _373  and  _375
REMARK  159  A    between atoms: _375  and  _376
REMARK  160  A    between atoms: _375  and  _378
REMARK  161  A    between atoms: _378  and  _379
REMARK                            x       y       z     vdW  Elec       q    Type
REMARK                         _______ _______ _______ _____ _____    ______ ____
ROOT
ATOM      1  CA  LEU A   1      -9.122  32.629 -14.740  0.00  0.00    +0.133 C 
ENDROOT
BRANCH   1   2
ATOM      2  N   LEU A   1     -10.145  32.115 -13.836  0.00  0.00    -0.239 NA
ATOM      3  H   LEU A   1     -10.042  31.161 -13.436  0.00  0.00    +0.142 HD
ENDBRANCH   1   2
BRANCH   1   4
ATOM      4  C   LEU A   1      -8.872  31.847 -16.024  0.00  0.00    +0.224 C 
ATOM      5  O   LEU A   1      -9.062  30.633 -16.078  0.00  0.00    -0.287 OA
ENDBRANCH   1   4
BRANCH   1   6
ATOM      6  CB  LEU A   1      -7.804  32.725 -13.972  0.00  0.00    +0.025 C 
BRANCH   6   7
ATOM      7  CG  LEU A   1      -7.896  33.308 -12.558  0.00  0.00    +0.002 C 
ATOM      8  CD2 LEU A   1      -6.741  32.804 -11.723  0.00  0.00    +0.000 C 
ATOM      9  CD1 LEU A   1      -7.908  34.823 -12.617  0.00  0.00    +0.000 C 
ENDBRANCH   6   7
ENDBRANCH   1   6
TORSDOF 4
REMARK  Name = ../refined-set-2016/1hdq/1hdq_pocket.pdb
REMARK  161 active torsions:
REMARK  status: ('A' for Active; 'I' for Inactive)
REMARK    1  A    between atoms: _1  and  _3
REMARK    2  A    between atoms: _3  and  _4
REMARK    3  A    between atoms: _3  and  _6
REMARK    4  A    between atoms: _6  and  _7
REMARK    5  A    between atoms: _10  and  _12
REMARK    6  A    between atoms: _12  and  _13
REMARK    7  A    between atoms: _12  and  _15
REMARK    8  A    between atoms: _15  and  _16
REMARK    9  A    between atoms: _17  and  ZN_385
REMARK   10  A    between atoms: _21  and  _23
REMARK   11  A    between atoms: _23  and  _24
REMARK   12  A    between atoms: _23  and  _26
REMARK   13  A    between atoms: _26  and  _27
REMARK   14  A    between atoms: _27  and  _28
REMARK   15  A    between atoms: _28  and  _29
REMARK   16  A    between atoms: _38  and  _40
REMARK   17  A    between atoms: _40  and  _41
REMARK   18  A    between atoms: _40  and  _43
REMARK   19  A    between atoms: _43  and  _44
REMARK   20  A    between atoms: _44  and  _45
REMARK   21  A    between atoms: _48  and  _50
REMARK   22  A    between atoms: _50  and  _51
REMARK   23  A    between atoms: _50  and  _53
REMARK   24  A    between atoms: _53  and  _54
REMARK   25  A    between atoms: _57  and  _59
REMARK   26  A    between atoms: _59  and  _60
REMARK   27  A    between atoms: _59  and  _62
REMARK   28  A    between atoms: _62  and  _63
REMARK   29  A    between atoms: _63  and  _64
REMARK   30  A    between atoms: _64  and  _65
REMARK   31  A    between atoms: _74  and  _76
REMARK   32  A    between atoms: _76  and  _77
REMARK   33  A    between atoms: _76  and  _79
REMARK   34  A    between atoms: _79  and  _80
REMARK   35  A    between atoms: _83  and  _85
REMARK   36  A    between atoms: _85  and  _86
REMARK   37  A    between atoms: _85  and  _88
REMARK   38  A    between atoms: _88  and  _89
REMARK   39  A    between atoms: _94  and  _96
REMARK   40  A    between atoms: _96  and  _97
REMARK   41  A    between atoms: _96  and  _99
REMARK   42  A    between atoms: _99  and  _100
REMARK   43  A    between atoms: _100  and  _101
REMARK   44  A    between atoms: _101  and  _102
REMARK   45  A    between atoms: _111  and  _113
REMARK   46  A    between atoms: _113  and  _114
REMARK   47  A    between atoms: _116  and  _118
REMARK   48  A    between atoms: _118  and  _119
REMARK   49  A    between atoms: _118  and  _121
REMARK   50  A    between atoms: _121  and  _122
REMARK   51  A    between atoms: _122  and  _123
REMARK   52  A    between atoms: _126  and  _128
REMARK   53  A    between atoms: _128  and  _129
REMARK   54  A    between atoms: _128  and  _131
REMARK   55  A    between atoms: _131  and  _132
REMARK   56  A    between atoms: _135  and  _137
REMARK   57  A    between atoms: _137  and  _138
REMARK   58  A    between atoms: _137  and  _140
REMARK   59  A    between atoms: _140  and  _141
REMARK   60  A    between atoms: _143  and  _145
REMARK   61  A    between atoms: _145  and  _146
REMARK   62  A    between atoms: _145  and  _148
REMARK   63  A    between atoms: _148  and  _149
REMARK   64  A    between atoms: _152  and  _154
REMARK   65  A    between atoms: _154  and  _155
REMARK   66  A    between atoms: _154  and  _157
REMARK   67  A    between atoms: _157  and  _158
REMARK   68  A    between atoms: _159  and  ZN_385
REMARK   69  A    between atoms: _163  and  _165
REMARK   70  A    between atoms: _165  and  _166
REMARK   71  A    between atoms: _165  and  _168
REMARK   72  A    between atoms: _168  and  _169
REMARK   73  A    between atoms: _171  and  _173
REMARK   74  A    between atoms: _173  and  _174
REMARK   75  A    between atoms: _173  and  _176
REMARK   76  A    between atoms: _176  and  _177
REMARK   77  A    between atoms: _182  and  _183
REMARK   78  A    between atoms: _185  and  _187
REMARK   79  A    between atoms: _187  and  _188
REMARK   80  A    between atoms: _187  and  _190
REMARK   81  A    between atoms: _190  and  _191
REMARK   82  A    between atoms: _193  and  _195
REMARK   83  A    between atoms: _195  and  _196
REMARK   84  A    between atoms: _195  and  _198
REMARK   85  A    between atoms: _198  and  _199
REMARK   86  A    between atoms: _202  and  _204
REMARK   87  A    between atoms: _204  and  _205
REMARK   88  A    between atoms: _204  and  _207
REMARK   89  A    between atoms: _207  and  _208
REMARK   90  A    between atoms: _211  and  _213
REMARK   91  A    between atoms: _213  and  _214
REMARK   92  A    between atoms: _216  and  _218
REMARK   93  A    between atoms: _218  and  _219
REMARK   94  A    between atoms: _218  and  _221
REMARK   95  A    between atoms: _221  and  _222
REMARK   96  A    between atoms: _227  and  _228
REMARK   97  A    between atoms: _230  and  _232
REMARK   98  A    between atoms: _232  and  _233
REMARK   99  A    between atoms: _232  and  _235
REMARK  100  A    between atoms: _235  and  _236
REMARK  101  A    between atoms: _239  and  _241
REMARK  102  A    between atoms: _241  and  _242
REMARK  103  A    between atoms: _241  and  _244
REMARK  104  A    between atoms: _244  and  _245
REMARK  105  A    between atoms: _248  and  _250
REMARK  106  A    between atoms: _250  and  _251
REMARK  107  A    between atoms: _250  and  _253
REMARK  108  A    between atoms: _253  and  _254
REMARK  109  A    between atoms: _257  and  _259
REMARK  110  A    between atoms: _259  and  _260
REMARK  111  A    between atoms: _259  and  _262
REMARK  112  A    between atoms: _262  and  _263
REMARK  113  A    between atoms: _268  and  _269
REMARK  114  A    between atoms: _271  and  _273
REMARK  115  A    between atoms: _273  and  _274
REMARK  116  A    between atoms: _273  and  _276
REMARK  117  A    between atoms: _276  and  _277
REMARK  118  A    between atoms: _277  and  _278
REMARK  119  A    between atoms: _283  and  _285
REMARK  120  A    between atoms: _285  and  _286
REMARK  121  A    between atoms: _289  and  _291
REMARK  122  A    between atoms: _291  and  _292
REMARK  123  A    between atoms: _291  and  _294
REMARK  124  A    between atoms: _294  and  _295
REMARK  125  A    between atoms: _297  and  _299
REMARK  126  A    between atoms: _299  and  _300
REMARK  127  A    between atoms: _302  and  _304
REMARK  128  A    between atoms: _304  and  _305
REMARK  129  A    between atoms: _307  and  _309
REMARK  130  A    between atoms: _309  and  _310
REMARK  131  A    between atoms: _309  and  _312
REMARK  132  A    between atoms: _312  and  _313
REMARK  133  A    between atoms: _315  and  _317
REMARK  134  A    between atoms: _317  and  _318
REMARK  135  A    between atoms: _317  and  _320
REMARK  136  A    between atoms: _320  and  _321
REMARK  137  A    between atoms: _324  and  _326
REMARK  138  A    between atoms: _326  and  _327
REMARK  139  A    between atoms: _326  and  _329
REMARK  140  A    between atoms: _329  and  _330
REMARK  141  A    between atoms: _333  and  _335
REMARK  142  A    between atoms: _335  and  _336
REMARK  143  A    between atoms: _335  and  _338
REMARK  144  A    between atoms: _338  and  _339
REMARK  145  A    between atoms: _342  and  _344
REMARK  146  A    between atoms: _344  and  _345
REMARK  147  A    between atoms: _344  and  _347
REMARK  148  A    between atoms: _347  and  _348
REMARK  149  A    between atoms: _354  and  _356
REMARK  150  A    between atoms: _356  and  _357
REMARK  151  A    between atoms: _356  and  _359
REMARK  152  A    between atoms: _359  and  _360
REMARK  153  A    between atoms: _360  and  _361
REMARK  154  A    between atoms: _364  and  _366
REMARK  155  A    between atoms: _366  and  _367
REMARK  156  A    between atoms: _366  and  _369
REMARK  157  A    between atoms: _369  and  _370
REMARK  158  A    between atoms: _373  and  _375
REMARK  159  A    between atoms: _375  and  _376
REMARK  160  A    between atoms: _375  and  _378
REMARK  161  A    between atoms: _378  and  _379
REMARK                            x       y       z     vdW  Elec       q    Type
REMARK                         _______ _______ _______ _____ _____    ______ ____
ROOT
ATOM      1  CA  TYR A   2       3.479  34.085 -18.125  0.00  0.00    +0.141 C 
ENDROOT
BRANCH   1   4
ATOM      2  C   GLY A   1       1.371  34.417 -16.943  0.00  0.00    +0.240 C 
ATOM      3  O   GLY A   1       1.878  35.255 -16.197  0.00  0.00    -0.274 OA
ATOM      4  N   TYR A   2       2.052  33.820 -17.921  0.00  0.00    -0.298 N 
ATOM      5  H   TYR A   2       1.562  33.154 -18.551  0.00  0.00    +0.150 HD
BRANCH   2   6
ATOM      6  CA  GLY A   1      -0.096  34.042 -16.789  0.00  0.00    +0.169 C 
BRANCH   6   7
ATOM      7  N   GLY A   1      -0.647  33.575 -18.042  0.00  0.00    -0.236 NA
ATOM      8  H   GLY A   1      -0.244  32.731 -18.497  0.00  0.00    +0.142 HD
ENDBRANCH   6   7
ENDBRANCH   2   6
ENDBRANCH   1   4
BRANCH   1   9
ATOM      9  C   TYR A   2       3.821  35.188 -19.132  0.00  0.00    +0.227 C 
ATOM     10  O   TYR A   2       4.957  35.658 -19.167  0.00  0.00    -0.286 OA
ENDBRANCH   1   9
BRANCH   1  11
ATOM     11  CB  TYR A   2       4.199  32.787 -18.526  0.00  0.00    +0.054 C 
BRANCH  11  12
ATOM     12  CG  TYR A   2       4.011  32.373 -19.976  0.00  0.00    -0.020 A 
ATOM     13  CD2 TYR A   2       3.027  31.450 -20.336  0.00  0.00    -0.001 A 
ATOM     14  CE2 TYR A   2       2.852  31.061 -21.659  0.00  0.00    +0.036 A 
ATOM     15  CZ  TYR A   2       3.670  31.595 -22.647  0.00  0.00    +0.134 A 
ATOM     16  CE1 TYR A   2       4.657  32.516 -22.321  0.00  0.00    +0.036 A 
ATOM     17  CD1 TYR A   2       4.821  32.901 -20.987  0.00  0.00    -0.001 A 
BRANCH  15  18
ATOM     18  OH  TYR A   2       3.498  31.202 -23.955  0.00  0.00    -0.506 OA
ATOM     19  HH  TYR A   2       4.155  31.671 -24.528  0.00  0.00    +0.292 HD
ENDBRANCH  15  18
ENDBRANCH  11  12
ENDBRANCH   1  11
TORSDOF 7
REMARK  Name = ../refined-set-2016/1hdq/1hdq_pocket.pdb
REMARK  161 active torsions:
REMARK  status: ('A' for Active; 'I' for Inactive)
REMARK    1  A    between atoms: _1  and  _3
REMARK    2  A    between atoms: _3  and  _4
REMARK    3  A    between atoms: _3  and  _6
REMARK    4  A    between atoms: _6  and  _7
REMARK    5  A    between atoms: _10  and  _12
REMARK    6  A    between atoms: _12  and  _13
REMARK    7  A    between atoms: _12  and  _15
REMARK    8  A    between atoms: _15  and  _16
REMARK    9  A    between atoms: _17  and  ZN_385
REMARK   10  A    between atoms: _21  and  _23
REMARK   11  A    between atoms: _23  and  _24
REMARK   12  A    between atoms: _23  and  _26
REMARK   13  A    between atoms: _26  and  _27
REMARK   14  A    between atoms: _27  and  _28
REMARK   15  A    between atoms: _28  and  _29
REMARK   16  A    between atoms: _38  and  _40
REMARK   17  A    between atoms: _40  and  _41
REMARK   18  A    between atoms: _40  and  _43
REMARK   19  A    between atoms: _43  and  _44
REMARK   20  A    between atoms: _44  and  _45
REMARK   21  A    between atoms: _48  and  _50
REMARK   22  A    between atoms: _50  and  _51
REMARK   23  A    between atoms: _50  and  _53
REMARK   24  A    between atoms: _53  and  _54
REMARK   25  A    between atoms: _57  and  _59
REMARK   26  A    between atoms: _59  and  _60
REMARK   27  A    between atoms: _59  and  _62
REMARK   28  A    between atoms: _62  and  _63
REMARK   29  A    between atoms: _63  and  _64
REMARK   30  A    between atoms: _64  and  _65
REMARK   31  A    between atoms: _74  and  _76
REMARK   32  A    between atoms: _76  and  _77
REMARK   33  A    between atoms: _76  and  _79
REMARK   34  A    between atoms: _79  and  _80
REMARK   35  A    between atoms: _83  and  _85
REMARK   36  A    between atoms: _85  and  _86
REMARK   37  A    between atoms: _85  and  _88
REMARK   38  A    between atoms: _88  and  _89
REMARK   39  A    between atoms: _94  and  _96
REMARK   40  A    between atoms: _96  and  _97
REMARK   41  A    between atoms: _96  and  _99
REMARK   42  A    between atoms: _99  and  _100
REMARK   43  A    between atoms: _100  and  _101
REMARK   44  A    between atoms: _101  and  _102
REMARK   45  A    between atoms: _111  and  _113
REMARK   46  A    between atoms: _113  and  _114
REMARK   47  A    between atoms: _116  and  _118
REMARK   48  A    between atoms: _118  and  _119
REMARK   49  A    between atoms: _118  and  _121
REMARK   50  A    between atoms: _121  and  _122
REMARK   51  A    between atoms: _122  and  _123
REMARK   52  A    between atoms: _126  and  _128
REMARK   53  A    between atoms: _128  and  _129
REMARK   54  A    between atoms: _128  and  _131
REMARK   55  A    between atoms: _131  and  _132
REMARK   56  A    between atoms: _135  and  _137
REMARK   57  A    between atoms: _137  and  _138
REMARK   58  A    between atoms: _137  and  _140
REMARK   59  A    between atoms: _140  and  _141
REMARK   60  A    between atoms: _143  and  _145
REMARK   61  A    between atoms: _145  and  _146
REMARK   62  A    between atoms: _145  and  _148
REMARK   63  A    between atoms: _148  and  _149
REMARK   64  A    between atoms: _152  and  _154
REMARK   65  A    between atoms: _154  and  _155
REMARK   66  A    between atoms: _154  and  _157
REMARK   67  A    between atoms: _157  and  _158
REMARK   68  A    between atoms: _159  and  ZN_385
REMARK   69  A    between atoms: _163  and  _165
REMARK   70  A    between atoms: _165  and  _166
REMARK   71  A    between atoms: _165  and  _168
REMARK   72  A    between atoms: _168  and  _169
REMARK   73  A    between atoms: _171  and  _173
REMARK   74  A    between atoms: _173  and  _174
REMARK   75  A    between atoms: _173  and  _176
REMARK   76  A    between atoms: _176  and  _177
REMARK   77  A    between atoms: _182  and  _183
REMARK   78  A    between atoms: _185  and  _187
REMARK   79  A    between atoms: _187  and  _188
REMARK   80  A    between atoms: _187  and  _190
REMARK   81  A    between atoms: _190  and  _191
REMARK   82  A    between atoms: _193  and  _195
REMARK   83  A    between atoms: _195  and  _196
REMARK   84  A    between atoms: _195  and  _198
REMARK   85  A    between atoms: _198  and  _199
REMARK   86  A    between atoms: _202  and  _204
REMARK   87  A    between atoms: _204  and  _205
REMARK   88  A    between atoms: _204  and  _207
REMARK   89  A    between atoms: _207  and  _208
REMARK   90  A    between atoms: _211  and  _213
REMARK   91  A    between atoms: _213  and  _214
REMARK   92  A    between atoms: _216  and  _218
REMARK   93  A    between atoms: _218  and  _219
REMARK   94  A    between atoms: _218  and  _221
REMARK   95  A    between atoms: _221  and  _222
REMARK   96  A    between atoms: _227  and  _228
REMARK   97  A    between atoms: _230  and  _232
REMARK   98  A    between atoms: _232  and  _233
REMARK   99  A    between atoms: _232  and  _235
REMARK  100  A    between atoms: _235  and  _236
REMARK  101  A    between atoms: _239  and  _241
REMARK  102  A    between atoms: _241  and  _242
REMARK  103  A    between atoms: _241  and  _244
REMARK  104  A    between atoms: _244  and  _245
REMARK  105  A    between atoms: _248  and  _250
REMARK  106  A    between atoms: _250  and  _251
REMARK  107  A    between atoms: _250  and  _253
REMARK  108  A    between atoms: _253  and  _254
REMARK  109  A    between atoms: _257  and  _259
REMARK  110  A    between atoms: _259  and  _260
REMARK  111  A    between atoms: _259  and  _262
REMARK  112  A    between atoms: _262  and  _263
REMARK  113  A    between atoms: _268  and  _269
REMARK  114  A    between atoms: _271  and  _273
REMARK  115  A    between atoms: _273  and  _274
REMARK  116  A    between atoms: _273  and  _276
REMARK  117  A    between atoms: _276  and  _277
REMARK  118  A    between atoms: _277  and  _278
REMARK  119  A    between atoms: _283  and  _285
REMARK  120  A    between atoms: _285  and  _286
REMARK  121  A    between atoms: _289  and  _291
REMARK  122  A    between atoms: _291  and  _292
REMARK  123  A    between atoms: _291  and  _294
REMARK  124  A    between atoms: _294  and  _295
REMARK  125  A    between atoms: _297  and  _299
REMARK  126  A    between atoms: _299  and  _300
REMARK  127  A    between atoms: _302  and  _304
REMARK  128  A    between atoms: _304  and  _305
REMARK  129  A    between atoms: _307  and  _309
REMARK  130  A    between atoms: _309  and  _310
REMARK  131  A    between atoms: _309  and  _312
REMARK  132  A    between atoms: _312  and  _313
REMARK  133  A    between atoms: _315  and  _317
REMARK  134  A    between atoms: _317  and  _318
REMARK  135  A    between atoms: _317  and  _320
REMARK  136  A    between atoms: _320  and  _321
REMARK  137  A    between atoms: _324  and  _326
REMARK  138  A    between atoms: _326  and  _327
REMARK  139  A    between atoms: _326  and  _329
REMARK  140  A    between atoms: _329  and  _330
REMARK  141  A    between atoms: _333  and  _335
REMARK  142  A    between atoms: _335  and  _336
REMARK  143  A    between atoms: _335  and  _338
REMARK  144  A    between atoms: _338  and  _339
REMARK  145  A    between atoms: _342  and  _344
REMARK  146  A    between atoms: _344  and  _345
REMARK  147  A    between atoms: _344  and  _347
REMARK  148  A    between atoms: _347  and  _348
REMARK  149  A    between atoms: _354  and  _356
REMARK  150  A    between atoms: _356  and  _357
REMARK  151  A    between atoms: _356  and  _359
REMARK  152  A    between atoms: _359  and  _360
REMARK  153  A    between atoms: _360  and  _361
REMARK  154  A    between atoms: _364  and  _366
REMARK  155  A    between atoms: _366  and  _367
REMARK  156  A    between atoms: _366  and  _369
REMARK  157  A    between atoms: _369  and  _370
REMARK  158  A    between atoms: _373  and  _375
REMARK  159  A    between atoms: _375  and  _376
REMARK  160  A    between atoms: _375  and  _378
REMARK  161  A    between atoms: _378  and  _379
REMARK                            x       y       z     vdW  Elec       q    Type
REMARK                         _______ _______ _______ _____ _____    ______ ____
ROOT
ATOM      1  C   ILE A   1      -3.276  36.504 -14.587  0.00  0.00    +0.238 C 
ATOM      2  O   ILE A   1      -3.297  37.058 -13.486  0.00  0.00    -0.274 OA
ATOM      3  N   ILE A   2      -2.514  36.927 -15.587  0.00  0.00    -0.298 N 
ATOM      4  H   ILE A   2      -2.566  36.449 -16.509  0.00  0.00    +0.150 HD
ENDROOT
BRANCH   1   5
ATOM      5  CA  ILE A   1      -4.148  35.280 -14.873  0.00  0.00    +0.145 C 
BRANCH   5   6
ATOM      6  N   ILE A   1      -4.973  35.408 -16.073  0.00  0.00    -0.238 NA
ATOM      7  H   ILE A   1      -4.870  34.712 -16.839  0.00  0.00    +0.142 HD
ENDBRANCH   5   6
BRANCH   5   8
ATOM      8  CB  ILE A   1      -3.211  34.050 -14.971  0.00  0.00    +0.025 C 
ATOM      9  CG2 ILE A   1      -2.293  33.996 -13.751  0.00  0.00    +0.002 C 
BRANCH   8  10
ATOM     10  CG1 ILE A   1      -4.038  32.766 -15.073  0.00  0.00    +0.002 C 
ATOM     11  CD1 ILE A   1      -3.211  31.524 -15.380  0.00  0.00    +0.000 C 
ENDBRANCH   8  10
ENDBRANCH   5   8
ENDBRANCH   1   5
BRANCH   3  12
ATOM     12  CA  ILE A   2      -1.607  38.049 -15.412  0.00  0.00    +0.137 C 
BRANCH  12  13
ATOM     13  C   ILE A   2      -2.279  39.390 -15.093  0.00  0.00    +0.227 C 
ATOM     14  O   ILE A   2      -1.724  40.185 -14.342  0.00  0.00    -0.286 OA
ENDBRANCH  12  13
BRANCH  12  15
ATOM     15  CB  ILE A   2      -0.663  38.177 -16.644  0.00  0.00    +0.026 C 
ATOM     16  CG2 ILE A   2      -1.431  38.703 -17.865  0.00  0.00    +0.002 C 
BRANCH  15  17
ATOM     17  CG1 ILE A   2       0.526  39.070 -16.293  0.00  0.00    +0.002 C 
ATOM     18  CD1 ILE A   2       1.674  38.966 -17.303  0.00  0.00    +0.000 C 
ENDBRANCH  15  17
ENDBRANCH  12  15
ENDBRANCH   3  12
TORSDOF 8
REMARK  Name = ../refined-set-2016/1hdq/1hdq_pocket.pdb
REMARK  161 active torsions:
REMARK  status: ('A' for Active; 'I' for Inactive)
REMARK    1  A    between atoms: _1  and  _3
REMARK    2  A    between atoms: _3  and  _4
REMARK    3  A    between atoms: _3  and  _6
REMARK    4  A    between atoms: _6  and  _7
REMARK    5  A    between atoms: _10  and  _12
REMARK    6  A    between atoms: _12  and  _13
REMARK    7  A    between atoms: _12  and  _15
REMARK    8  A    between atoms: _15  and  _16
REMARK    9  A    between atoms: _17  and  ZN_385
REMARK   10  A    between atoms: _21  and  _23
REMARK   11  A    between atoms: _23  and  _24
REMARK   12  A    between atoms: _23  and  _26
REMARK   13  A    between atoms: _26  and  _27
REMARK   14  A    between atoms: _27  and  _28
REMARK   15  A    between atoms: _28  and  _29
REMARK   16  A    between atoms: _38  and  _40
REMARK   17  A    between atoms: _40  and  _41
REMARK   18  A    between atoms: _40  and  _43
REMARK   19  A    between atoms: _43  and  _44
REMARK   20  A    between atoms: _44  and  _45
REMARK   21  A    between atoms: _48  and  _50
REMARK   22  A    between atoms: _50  and  _51
REMARK   23  A    between atoms: _50  and  _53
REMARK   24  A    between atoms: _53  and  _54
REMARK   25  A    between atoms: _57  and  _59
REMARK   26  A    between atoms: _59  and  _60
REMARK   27  A    between atoms: _59  and  _62
REMARK   28  A    between atoms: _62  and  _63
REMARK   29  A    between atoms: _63  and  _64
REMARK   30  A    between atoms: _64  and  _65
REMARK   31  A    between atoms: _74  and  _76
REMARK   32  A    between atoms: _76  and  _77
REMARK   33  A    between atoms: _76  and  _79
REMARK   34  A    between atoms: _79  and  _80
REMARK   35  A    between atoms: _83  and  _85
REMARK   36  A    between atoms: _85  and  _86
REMARK   37  A    between atoms: _85  and  _88
REMARK   38  A    between atoms: _88  and  _89
REMARK   39  A    between atoms: _94  and  _96
REMARK   40  A    between atoms: _96  and  _97
REMARK   41  A    between atoms: _96  and  _99
REMARK   42  A    between atoms: _99  and  _100
REMARK   43  A    between atoms: _100  and  _101
REMARK   44  A    between atoms: _101  and  _102
REMARK   45  A    between atoms: _111  and  _113
REMARK   46  A    between atoms: _113  and  _114
REMARK   47  A    between atoms: _116  and  _118
REMARK   48  A    between atoms: _118  and  _119
REMARK   49  A    between atoms: _118  and  _121
REMARK   50  A    between atoms: _121  and  _122
REMARK   51  A    between atoms: _122  and  _123
REMARK   52  A    between atoms: _126  and  _128
REMARK   53  A    between atoms: _128  and  _129
REMARK   54  A    between atoms: _128  and  _131
REMARK   55  A    between atoms: _131  and  _132
REMARK   56  A    between atoms: _135  and  _137
REMARK   57  A    between atoms: _137  and  _138
REMARK   58  A    between atoms: _137  and  _140
REMARK   59  A    between atoms: _140  and  _141
REMARK   60  A    between atoms: _143  and  _145
REMARK   61  A    between atoms: _145  and  _146
REMARK   62  A    between atoms: _145  and  _148
REMARK   63  A    between atoms: _148  and  _149
REMARK   64  A    between atoms: _152  and  _154
REMARK   65  A    between atoms: _154  and  _155
REMARK   66  A    between atoms: _154  and  _157
REMARK   67  A    between atoms: _157  and  _158
REMARK   68  A    between atoms: _159  and  ZN_385
REMARK   69  A    between atoms: _163  and  _165
REMARK   70  A    between atoms: _165  and  _166
REMARK   71  A    between atoms: _165  and  _168
REMARK   72  A    between atoms: _168  and  _169
REMARK   73  A    between atoms: _171  and  _173
REMARK   74  A    between atoms: _173  and  _174
REMARK   75  A    between atoms: _173  and  _176
REMARK   76  A    between atoms: _176  and  _177
REMARK   77  A    between atoms: _182  and  _183
REMARK   78  A    between atoms: _185  and  _187
REMARK   79  A    between atoms: _187  and  _188
REMARK   80  A    between atoms: _187  and  _190
REMARK   81  A    between atoms: _190  and  _191
REMARK   82  A    between atoms: _193  and  _195
REMARK   83  A    between atoms: _195  and  _196
REMARK   84  A    between atoms: _195  and  _198
REMARK   85  A    between atoms: _198  and  _199
REMARK   86  A    between atoms: _202  and  _204
REMARK   87  A    between atoms: _204  and  _205
REMARK   88  A    between atoms: _204  and  _207
REMARK   89  A    between atoms: _207  and  _208
REMARK   90  A    between atoms: _211  and  _213
REMARK   91  A    between atoms: _213  and  _214
REMARK   92  A    between atoms: _216  and  _218
REMARK   93  A    between atoms: _218  and  _219
REMARK   94  A    between atoms: _218  and  _221
REMARK   95  A    between atoms: _221  and  _222
REMARK   96  A    between atoms: _227  and  _228
REMARK   97  A    between atoms: _230  and  _232
REMARK   98  A    between atoms: _232  and  _233
REMARK   99  A    between atoms: _232  and  _235
REMARK  100  A    between atoms: _235  and  _236
REMARK  101  A    between atoms: _239  and  _241
REMARK  102  A    between atoms: _241  and  _242
REMARK  103  A    between atoms: _241  and  _244
REMARK  104  A    between atoms: _244  and  _245
REMARK  105  A    between atoms: _248  and  _250
REMARK  106  A    between atoms: _250  and  _251
REMARK  107  A    between atoms: _250  and  _253
REMARK  108  A    between atoms: _253  and  _254
REMARK  109  A    between atoms: _257  and  _259
REMARK  110  A    between atoms: _259  and  _260
REMARK  111  A    between atoms: _259  and  _262
REMARK  112  A    between atoms: _262  and  _263
REMARK  113  A    between atoms: _268  and  _269
REMARK  114  A    between atoms: _271  and  _273
REMARK  115  A    between atoms: _273  and  _274
REMARK  116  A    between atoms: _273  and  _276
REMARK  117  A    between atoms: _276  and  _277
REMARK  118  A    between atoms: _277  and  _278
REMARK  119  A    between atoms: _283  and  _285
REMARK  120  A    between atoms: _285  and  _286
REMARK  121  A    between atoms: _289  and  _291
REMARK  122  A    between atoms: _291  and  _292
REMARK  123  A    between atoms: _291  and  _294
REMARK  124  A    between atoms: _294  and  _295
REMARK  125  A    between atoms: _297  and  _299
REMARK  126  A    between atoms: _299  and  _300
REMARK  127  A    between atoms: _302  and  _304
REMARK  128  A    between atoms: _304  and  _305
REMARK  129  A    between atoms: _307  and  _309
REMARK  130  A    between atoms: _309  and  _310
REMARK  131  A    between atoms: _309  and  _312
REMARK  132  A    between atoms: _312  and  _313
REMARK  133  A    between atoms: _315  and  _317
REMARK  134  A    between atoms: _317  and  _318
REMARK  135  A    between atoms: _317  and  _320
REMARK  136  A    between atoms: _320  and  _321
REMARK  137  A    between atoms: _324  and  _326
REMARK  138  A    between atoms: _326  and  _327
REMARK  139  A    between atoms: _326  and  _329
REMARK  140  A    between atoms: _329  and  _330
REMARK  141  A    between atoms: _333  and  _335
REMARK  142  A    between atoms: _335  and  _336
REMARK  143  A    between atoms: _335  and  _338
REMARK  144  A    between atoms: _338  and  _339
REMARK  145  A    between atoms: _342  and  _344
REMARK  146  A    between atoms: _344  and  _345
REMARK  147  A    between atoms: _344  and  _347
REMARK  148  A    between atoms: _347  and  _348
REMARK  149  A    between atoms: _354  and  _356
REMARK  150  A    between atoms: _356  and  _357
REMARK  151  A    between atoms: _356  and  _359
REMARK  152  A    between atoms: _359  and  _360
REMARK  153  A    between atoms: _360  and  _361
REMARK  154  A    between atoms: _364  and  _366
REMARK  155  A    between atoms: _366  and  _367
REMARK  156  A    between atoms: _366  and  _369
REMARK  157  A    between atoms: _369  and  _370
REMARK  158  A    between atoms: _373  and  _375
REMARK  159  A    between atoms: _375  and  _376
REMARK  160  A    between atoms: _375  and  _378
REMARK  161  A    between atoms: _378  and  _379
REMARK                            x       y       z     vdW  Elec       q    Type
REMARK                         _______ _______ _______ _____ _____    ______ ____
ROOT
ATOM      1  C   ALA A   4       3.476  32.571 -14.234  0.00  0.00    +0.241 C 
ATOM      2  N   SER A   5       4.654  31.959 -14.176  0.00  0.00    -0.295 N 
ATOM      3  H   SER A   5       5.271  32.115 -13.353  0.00  0.00    +0.150 HD
ATOM      4  O   ALA A   4       2.678  32.402 -15.162  0.00  0.00    -0.273 OA
ENDROOT
BRANCH   1   5
ATOM      5  CA  ALA A   4       3.136  33.504 -13.073  0.00  0.00    +0.149 C 
ATOM      6  CB  ALA A   4       1.961  32.943 -12.267  0.00  0.00    +0.031 C 
BRANCH   5   9
ATOM      7  C   GLN A   3       3.051  35.954 -12.963  0.00  0.00    +0.241 C 
ATOM      8  O   GLN A   3       3.580  35.985 -11.848  0.00  0.00    -0.273 OA
ATOM      9  N   ALA A   4       2.794  34.821 -13.614  0.00  0.00    -0.297 N 
ATOM     10  H   ALA A   4       2.332  34.874 -14.544  0.00  0.00    +0.150 HD
BRANCH   7  11
ATOM     11  CA  GLN A   3       2.632  37.246 -13.676  0.00  0.00    +0.149 C 
BRANCH  11  14
ATOM     12  C   TYR A   2       0.727  37.819 -12.310  0.00  0.00    +0.241 C 
ATOM     13  O   TYR A   2       0.161  36.764 -12.599  0.00  0.00    -0.273 OA
ATOM     14  N   GLN A   3       1.922  38.144 -12.782  0.00  0.00    -0.297 N 
ATOM     15  H   GLN A   3       2.355  39.050 -12.510  0.00  0.00    +0.150 HD
BRANCH  12  16
ATOM     16  CA  TYR A   2       0.053  38.822 -11.386  0.00  0.00    +0.153 C 
BRANCH  16  19
ATOM     17  C   ILE A   1      -2.135  38.970 -10.280  0.00  0.00    +0.238 C 
ATOM     18  O   ILE A   1      -1.879  40.056  -9.764  0.00  0.00    -0.274 OA
ATOM     19  N   TYR A   2      -1.276  38.312 -11.049  0.00  0.00    -0.297 N 
ATOM     20  H   TYR A   2      -1.562  37.388 -11.431  0.00  0.00    +0.150 HD
BRANCH  17  21
ATOM     21  CA  ILE A   1      -3.491  38.306 -10.066  0.00  0.00    +0.145 C 
BRANCH  21  22
ATOM     22  CB  ILE A   1      -3.319  36.780  -9.895  0.00  0.00    +0.025 C 
ATOM     23  CG2 ILE A   1      -2.476  36.474  -8.660  0.00  0.00    +0.002 C 
BRANCH  22  24
ATOM     24  CG1 ILE A   1      -4.698  36.129  -9.771  0.00  0.00    +0.002 C 
ATOM     25  CD1 ILE A   1      -4.668  34.633  -9.627  0.00  0.00    +0.000 C 
ENDBRANCH  22  24
ENDBRANCH  21  22
BRANCH  21  26
ATOM     26  N   ILE A   1      -4.320  38.597 -11.228  0.00  0.00    -0.238 NA
ATOM     27  H   ILE A   1      -4.033  38.233 -12.159  0.00  0.00    +0.142 HD
ENDBRANCH  21  26
ENDBRANCH  17  21
ENDBRANCH  16  19
BRANCH  16  28
ATOM     28  CB  TYR A   2       0.912  39.059 -10.126  0.00  0.00    +0.055 C 
BRANCH  28  29
ATOM     29  CG  TYR A   2       0.886  37.950  -9.091  0.00  0.00    -0.020 A 
ATOM     30  CD2 TYR A   2       0.439  38.201  -7.789  0.00  0.00    -0.001 A 
ATOM     31  CE2 TYR A   2       0.408  37.188  -6.822  0.00  0.00    +0.036 A 
ATOM     32  CZ  TYR A   2       0.828  35.908  -7.159  0.00  0.00    +0.134 A 
ATOM     33  CE1 TYR A   2       1.279  35.635  -8.446  0.00  0.00    +0.036 A 
ATOM     34  CD1 TYR A   2       1.306  36.655  -9.404  0.00  0.00    -0.001 A 
BRANCH  32  35
ATOM     35  OH  TYR A   2       0.778  34.900  -6.218  0.00  0.00    -0.506 OA
ATOM     36  HH  TYR A   2       1.111  34.059  -6.619  0.00  0.00    +0.292 HD
ENDBRANCH  32  35
ENDBRANCH  28  29
ENDBRANCH  16  28
ENDBRANCH  12  16
ENDBRANCH  11  14
BRANCH  11  37
ATOM     37  CB  GLN A   3       3.852  37.961 -14.270  0.00  0.00    +0.039 C 
BRANCH  37  38
ATOM     38  CG  GLN A   3       4.703  37.095 -15.189  0.00  0.00    +0.087 C 
BRANCH  38  39
ATOM     39  CD  GLN A   3       5.741  37.899 -15.957  0.00  0.00    +0.219 C 
ATOM     40  OE1 GLN A   3       6.500  38.672 -15.376  0.00  0.00    -0.275 OA
ATOM     41  NE2 GLN A   3       5.777  37.715 -17.272  0.00  0.00    -0.329 N 
ATOM     42 HE21 GLN A   3       5.116  37.051 -17.722  0.00  0.00    +0.145 HD
ATOM     43 HE22 GLN A   3       6.467  38.235 -17.851  0.00  0.00    +0.145 HD
ENDBRANCH  38  39
ENDBRANCH  37  38
ENDBRANCH  11  37
ENDBRANCH   7  11
ENDBRANCH   5   9
ENDBRANCH   1   5
BRANCH   2  44
ATOM     44  CA  SER A   5       5.097  31.074 -15.245  0.00  0.00    +0.178 C 
BRANCH  44  45
ATOM     45  C   SER A   5       4.976  29.588 -14.931  0.00  0.00    +0.243 C 
ATOM     46  O   SER A   5       4.863  29.190 -13.773  0.00  0.00    -0.273 OA
ATOM     47  N   GLY A   6       5.003  28.777 -15.986  0.00  0.00    -0.295 N 
ATOM     48  H   GLY A   6       5.090  29.187 -16.938  0.00  0.00    +0.150 HD
BRANCH  47  49
ATOM     49  CA  GLY A   6       4.914  27.333 -15.843  0.00  0.00    +0.176 C 
BRANCH  49  50
ATOM     50  C   GLY A   6       3.560  26.795 -15.417  0.00  0.00    +0.243 C 
ATOM     51  O   GLY A   6       3.482  25.692 -14.888  0.00  0.00    -0.273 OA
ATOM     52  N   GLY A   7       2.499  27.563 -15.657  0.00  0.00    -0.295 N 
ATOM     53  H   GLY A   7       2.630  28.480 -16.130  0.00  0.00    +0.150 HD
BRANCH  52  54
ATOM     54  CA  GLY A   7       1.161  27.145 -15.271  0.00  0.00    +0.176 C 
BRANCH  54  55
ATOM     55  C   GLY A   7       0.519  26.104 -16.170  0.00  0.00    +0.243 C 
ATOM     56  N   SER A   8      -0.373  25.297 -15.592  0.00  0.00    -0.295 N 
ATOM     57  H   SER A   8      -0.602  25.437 -14.587  0.00  0.00    +0.150 HD
ATOM     58  O   GLY A   7       0.800  26.052 -17.371  0.00  0.00    -0.273 OA
BRANCH  56  59
ATOM     59  CA  SER A   8      -1.038  24.223 -16.327  0.00  0.00    +0.178 C 
BRANCH  59  60
ATOM     60  C   SER A   8      -1.976  24.659 -17.451  0.00  0.00    +0.243 C 
ATOM     61  N   ILE A   9      -2.806  25.674 -17.222  0.00  0.00    -0.297 N 
ATOM     62  H   ILE A   9      -2.808  26.165 -16.305  0.00  0.00    +0.150 HD
ATOM     63  O   SER A   8      -1.947  24.071 -18.536  0.00  0.00    -0.273 OA
BRANCH  61  64
ATOM     64  CA  ILE A   9      -3.711  26.079 -18.288  0.00  0.00    +0.149 C 
BRANCH  64  65
ATOM     65  C   ILE A   9      -3.003  26.838 -19.403  0.00  0.00    +0.241 C 
ATOM     66  N   ASP A  10      -1.832  27.400 -19.110  0.00  0.00    -0.298 N 
ATOM     67  H   ASP A  10      -1.461  27.344 -18.140  0.00  0.00    +0.150 HD
ATOM     68  O   ILE A   9      -3.512  26.912 -20.516  0.00  0.00    -0.273 OA
BRANCH  66  69
ATOM     69  CA  ASP A  10      -1.066  28.093 -20.139  0.00  0.00    +0.148 C 
BRANCH  69  70
ATOM     70  C   ASP A  10      -0.524  27.000 -21.062  0.00  0.00    +0.227 C 
ATOM     71  O   ASP A  10      -0.499  27.148 -22.285  0.00  0.00    -0.286 OA
ENDBRANCH  69  70
BRANCH  69  72
ATOM     72  CB  ASP A  10       0.076  28.898 -19.519  0.00  0.00    +0.142 C 
BRANCH  72  73
ATOM     73  CG  ASP A  10      -0.398  30.230 -18.934  0.00  0.00    +0.367 C 
ATOM     74  OD2 ASP A  10       0.453  31.037 -18.506  0.00  0.00    -0.246 OA
ATOM     75  OD1 ASP A  10      -1.625  30.471 -18.902  0.00  0.00    -0.246 OA
ENDBRANCH  72  73
ENDBRANCH  69  72
ENDBRANCH  66  69
ENDBRANCH  64  65
BRANCH  64  76
ATOM     76  CB  ILE A   9      -4.926  26.899 -17.768  0.00  0.00    +0.027 C 
ATOM     77  CG2 ILE A   9      -5.704  26.071 -16.745  0.00  0.00    +0.002 C 
BRANCH  76  78
ATOM     78  CG1 ILE A   9      -4.474  28.231 -17.181  0.00  0.00    +0.002 C 
ATOM     79  CD1 ILE A   9      -5.644  29.128 -16.813  0.00  0.00    +0.000 C 
ENDBRANCH  76  78
ENDBRANCH  64  76
ENDBRANCH  61  64
ENDBRANCH  59  60
BRANCH  59  80
ATOM     80  CB  SER A   8      -1.791  23.293 -15.359  0.00  0.00    +0.166 C 
BRANCH  80  81
ATOM     81  OG  SER A   8      -2.931  23.916 -14.784  0.00  0.00    -0.380 OA
ATOM     82  H   SER A   8      -3.379  23.280 -14.172  0.00  0.00    +0.211 HD
ENDBRANCH  80  81
ENDBRANCH  59  80
ENDBRANCH  56  59
ENDBRANCH  54  55
ENDBRANCH  52  54
ENDBRANCH  49  50
ENDBRANCH  47  49
ENDBRANCH  44  45
BRANCH  44  83
ATOM     83  CB  SER A   5       6.546  31.398 -15.610  0.00  0.00    +0.166 C 
BRANCH  83  84
ATOM     84  OG  SER A   5       7.391  31.279 -14.476  0.00  0.00    -0.380 OA
ATOM     85  H   SER A   5       8.322  31.493 -14.736  0.00  0.00    +0.211 HD
ENDBRANCH  83  84
ENDBRANCH  44  83
ENDBRANCH   2  44
TORSDOF 36
REMARK  Name = ../refined-set-2016/1hdq/1hdq_pocket.pdb
REMARK  161 active torsions:
REMARK  status: ('A' for Active; 'I' for Inactive)
REMARK    1  A    between atoms: _1  and  _3
REMARK    2  A    between atoms: _3  and  _4
REMARK    3  A    between atoms: _3  and  _6
REMARK    4  A    between atoms: _6  and  _7
REMARK    5  A    between atoms: _10  and  _12
REMARK    6  A    between atoms: _12  and  _13
REMARK    7  A    between atoms: _12  and  _15
REMARK    8  A    between atoms: _15  and  _16
REMARK    9  A    between atoms: _17  and  ZN_385
REMARK   10  A    between atoms: _21  and  _23
REMARK   11  A    between atoms: _23  and  _24
REMARK   12  A    between atoms: _23  and  _26
REMARK   13  A    between atoms: _26  and  _27
REMARK   14  A    between atoms: _27  and  _28
REMARK   15  A    between atoms: _28  and  _29
REMARK   16  A    between atoms: _38  and  _40
REMARK   17  A    between atoms: _40  and  _41
REMARK   18  A    between atoms: _40  and  _43
REMARK   19  A    between atoms: _43  and  _44
REMARK   20  A    between atoms: _44  and  _45
REMARK   21  A    between atoms: _48  and  _50
REMARK   22  A    between atoms: _50  and  _51
REMARK   23  A    between atoms: _50  and  _53
REMARK   24  A    between atoms: _53  and  _54
REMARK   25  A    between atoms: _57  and  _59
REMARK   26  A    between atoms: _59  and  _60
REMARK   27  A    between atoms: _59  and  _62
REMARK   28  A    between atoms: _62  and  _63
REMARK   29  A    between atoms: _63  and  _64
REMARK   30  A    between atoms: _64  and  _65
REMARK   31  A    between atoms: _74  and  _76
REMARK   32  A    between atoms: _76  and  _77
REMARK   33  A    between atoms: _76  and  _79
REMARK   34  A    between atoms: _79  and  _80
REMARK   35  A    between atoms: _83  and  _85
REMARK   36  A    between atoms: _85  and  _86
REMARK   37  A    between atoms: _85  and  _88
REMARK   38  A    between atoms: _88  and  _89
REMARK   39  A    between atoms: _94  and  _96
REMARK   40  A    between atoms: _96  and  _97
REMARK   41  A    between atoms: _96  and  _99
REMARK   42  A    between atoms: _99  and  _100
REMARK   43  A    between atoms: _100  and  _101
REMARK   44  A    between atoms: _101  and  _102
REMARK   45  A    between atoms: _111  and  _113
REMARK   46  A    between atoms: _113  and  _114
REMARK   47  A    between atoms: _116  and  _118
REMARK   48  A    between atoms: _118  and  _119
REMARK   49  A    between atoms: _118  and  _121
REMARK   50  A    between atoms: _121  and  _122
REMARK   51  A    between atoms: _122  and  _123
REMARK   52  A    between atoms: _126  and  _128
REMARK   53  A    between atoms: _128  and  _129
REMARK   54  A    between atoms: _128  and  _131
REMARK   55  A    between atoms: _131  and  _132
REMARK   56  A    between atoms: _135  and  _137
REMARK   57  A    between atoms: _137  and  _138
REMARK   58  A    between atoms: _137  and  _140
REMARK   59  A    between atoms: _140  and  _141
REMARK   60  A    between atoms: _143  and  _145
REMARK   61  A    between atoms: _145  and  _146
REMARK   62  A    between atoms: _145  and  _148
REMARK   63  A    between atoms: _148  and  _149
REMARK   64  A    between atoms: _152  and  _154
REMARK   65  A    between atoms: _154  and  _155
REMARK   66  A    between atoms: _154  and  _157
REMARK   67  A    between atoms: _157  and  _158
REMARK   68  A    between atoms: _159  and  ZN_385
REMARK   69  A    between atoms: _163  and  _165
REMARK   70  A    between atoms: _165  and  _166
REMARK   71  A    between atoms: _165  and  _168
REMARK   72  A    between atoms: _168  and  _169
REMARK   73  A    between atoms: _171  and  _173
REMARK   74  A    between atoms: _173  and  _174
REMARK   75  A    between atoms: _173  and  _176
REMARK   76  A    between atoms: _176  and  _177
REMARK   77  A    between atoms: _182  and  _183
REMARK   78  A    between atoms: _185  and  _187
REMARK   79  A    between atoms: _187  and  _188
REMARK   80  A    between atoms: _187  and  _190
REMARK   81  A    between atoms: _190  and  _191
REMARK   82  A    between atoms: _193  and  _195
REMARK   83  A    between atoms: _195  and  _196
REMARK   84  A    between atoms: _195  and  _198
REMARK   85  A    between atoms: _198  and  _199
REMARK   86  A    between atoms: _202  and  _204
REMARK   87  A    between atoms: _204  and  _205
REMARK   88  A    between atoms: _204  and  _207
REMARK   89  A    between atoms: _207  and  _208
REMARK   90  A    between atoms: _211  and  _213
REMARK   91  A    between atoms: _213  and  _214
REMARK   92  A    between atoms: _216  and  _218
REMARK   93  A    between atoms: _218  and  _219
REMARK   94  A    between atoms: _218  and  _221
REMARK   95  A    between atoms: _221  and  _222
REMARK   96  A    between atoms: _227  and  _228
REMARK   97  A    between atoms: _230  and  _232
REMARK   98  A    between atoms: _232  and  _233
REMARK   99  A    between atoms: _232  and  _235
REMARK  100  A    between atoms: _235  and  _236
REMARK  101  A    between atoms: _239  and  _241
REMARK  102  A    between atoms: _241  and  _242
REMARK  103  A    between atoms: _241  and  _244
REMARK  104  A    between atoms: _244  and  _245
REMARK  105  A    between atoms: _248  and  _250
REMARK  106  A    between atoms: _250  and  _251
REMARK  107  A    between atoms: _250  and  _253
REMARK  108  A    between atoms: _253  and  _254
REMARK  109  A    between atoms: _257  and  _259
REMARK  110  A    between atoms: _259  and  _260
REMARK  111  A    between atoms: _259  and  _262
REMARK  112  A    between atoms: _262  and  _263
REMARK  113  A    between atoms: _268  and  _269
REMARK  114  A    between atoms: _271  and  _273
REMARK  115  A    between atoms: _273  and  _274
REMARK  116  A    between atoms: _273  and  _276
REMARK  117  A    between atoms: _276  and  _277
REMARK  118  A    between atoms: _277  and  _278
REMARK  119  A    between atoms: _283  and  _285
REMARK  120  A    between atoms: _285  and  _286
REMARK  121  A    between atoms: _289  and  _291
REMARK  122  A    between atoms: _291  and  _292
REMARK  123  A    between atoms: _291  and  _294
REMARK  124  A    between atoms: _294  and  _295
REMARK  125  A    between atoms: _297  and  _299
REMARK  126  A    between atoms: _299  and  _300
REMARK  127  A    between atoms: _302  and  _304
REMARK  128  A    between atoms: _304  and  _305
REMARK  129  A    between atoms: _307  and  _309
REMARK  130  A    between atoms: _309  and  _310
REMARK  131  A    between atoms: _309  and  _312
REMARK  132  A    between atoms: _312  and  _313
REMARK  133  A    between atoms: _315  and  _317
REMARK  134  A    between atoms: _317  and  _318
REMARK  135  A    between atoms: _317  and  _320
REMARK  136  A    between atoms: _320  and  _321
REMARK  137  A    between atoms: _324  and  _326
REMARK  138  A    between atoms: _326  and  _327
REMARK  139  A    between atoms: _326  and  _329
REMARK  140  A    between atoms: _329  and  _330
REMARK  141  A    between atoms: _333  and  _335
REMARK  142  A    between atoms: _335  and  _336
REMARK  143  A    between atoms: _335  and  _338
REMARK  144  A    between atoms: _338  and  _339
REMARK  145  A    between atoms: _342  and  _344
REMARK  146  A    between atoms: _344  and  _345
REMARK  147  A    between atoms: _344  and  _347
REMARK  148  A    between atoms: _347  and  _348
REMARK  149  A    between atoms: _354  and  _356
REMARK  150  A    between atoms: _356  and  _357
REMARK  151  A    between atoms: _356  and  _359
REMARK  152  A    between atoms: _359  and  _360
REMARK  153  A    between atoms: _360  and  _361
REMARK  154  A    between atoms: _364  and  _366
REMARK  155  A    between atoms: _366  and  _367
REMARK  156  A    between atoms: _366  and  _369
REMARK  157  A    between atoms: _369  and  _370
REMARK  158  A    between atoms: _373  and  _375
REMARK  159  A    between atoms: _375  and  _376
REMARK  160  A    between atoms: _375  and  _378
REMARK  161  A    between atoms: _378  and  _379
REMARK                            x       y       z     vdW  Elec       q    Type
REMARK                         _______ _______ _______ _____ _____    ______ ____
ROOT
ATOM      1  C   PHE A   2     -10.056  28.248  -9.174  0.00  0.00    +0.241 C 
ATOM      2  N   GLU A   3     -10.393  29.305  -8.442  0.00  0.00    -0.297 N 
ATOM      3  H   GLU A   3     -11.094  29.969  -8.828  0.00  0.00    +0.150 HD
ATOM      4  O   PHE A   2      -9.182  27.443  -8.843  0.00  0.00    -0.273 OA
ENDROOT
BRANCH   2   5
ATOM      5  CA  GLU A   3      -9.829  29.582  -7.121  0.00  0.00    +0.149 C 
BRANCH   5   6
ATOM      6  C   GLU A   3     -11.098  29.686  -6.258  0.00  0.00    +0.241 C 
ATOM      7  N   LEU A   4     -11.394  28.635  -5.497  0.00  0.00    -0.298 N 
ATOM      8  H   LEU A   4     -10.740  27.826  -5.487  0.00  0.00    +0.150 HD
ATOM      9  O   GLU A   3     -11.801  30.693  -6.306  0.00  0.00    -0.273 OA
BRANCH   7  10
ATOM     10  CA  LEU A   4     -12.601  28.571  -4.675  0.00  0.00    +0.137 C 
BRANCH  10  11
ATOM     11  C   LEU A   4     -12.584  29.416  -3.396  0.00  0.00    +0.227 C 
ATOM     12  O   LEU A   4     -11.703  30.255  -3.205  0.00  0.00    -0.286 OA
ENDBRANCH  10  11
BRANCH  10  13
ATOM     13  CB  LEU A   4     -12.902  27.105  -4.315  0.00  0.00    +0.028 C 
BRANCH  13  14
ATOM     14  CG  LEU A   4     -12.890  26.061  -5.442  0.00  0.00    +0.002 C 
ATOM     15  CD2 LEU A   4     -13.334  24.715  -4.895  0.00  0.00    +0.000 C 
ATOM     16  CD1 LEU A   4     -13.809  26.489  -6.574  0.00  0.00    +0.000 C 
ENDBRANCH  13  14
ENDBRANCH  10  13
ENDBRANCH   7  10
ENDBRANCH   5   6
BRANCH   5  17
ATOM     17  CB  GLU A   3      -9.062  30.910  -7.111  0.00  0.00    +0.041 C 
BRANCH  17  18
ATOM     18  CG  GLU A   3      -7.679  30.864  -7.762  0.00  0.00    +0.116 C 
BRANCH  18  19
ATOM     19  CD  GLU A   3      -6.668  30.036  -6.971  0.00  0.00    +0.365 C 
ATOM     20  OE2 GLU A   3      -6.941  29.693  -5.799  0.00  0.00    -0.246 OA
ATOM     21  OE1 GLU A   3      -5.584  29.741  -7.522  0.00  0.00    -0.246 OA
ENDBRANCH  18  19
ENDBRANCH  17  18
ENDBRANCH   5  17
ENDBRANCH   2   5
BRANCH   1  22
ATOM     22  CA  PHE A   2     -10.825  28.069 -10.483  0.00  0.00    +0.153 C 
BRANCH  22  24
ATOM     23  C   THR A   1      -9.410  28.400 -12.449  0.00  0.00    +0.241 C 
ATOM     24  N   PHE A   2      -9.918  27.593 -11.522  0.00  0.00    -0.297 N 
ATOM     25  H   PHE A   2      -9.659  26.586 -11.538  0.00  0.00    +0.150 HD
ATOM     26  O   THR A   1      -9.700  29.592 -12.536  0.00  0.00    -0.274 OA
BRANCH  23  27
ATOM     27  CA  THR A   1      -8.449  27.761 -13.446  0.00  0.00    +0.172 C 
BRANCH  27  28
ATOM     28  CB  THR A   1      -7.033  28.316 -13.189  0.00  0.00    +0.135 C 
ATOM     29  CG2 THR A   1      -6.663  28.178 -11.716  0.00  0.00    +0.034 C 
BRANCH  28  30
ATOM     30  OG1 THR A   1      -6.084  27.587 -13.977  0.00  0.00    -0.383 OA
ATOM     31  HG1 THR A   1      -5.176  27.944 -13.811  0.00  0.00    +0.210 HD
ENDBRANCH  28  30
ENDBRANCH  27  28
BRANCH  27  32
ATOM     32  N   THR A   1      -8.926  28.068 -14.782  0.00  0.00    -0.236 NA
ATOM     33  H   THR A   1      -9.037  29.064 -15.059  0.00  0.00    +0.142 HD
ENDBRANCH  27  32
ENDBRANCH  23  27
ENDBRANCH  22  24
BRANCH  22  34
ATOM     34  CB  PHE A   2     -11.941  27.051 -10.195  0.00  0.00    +0.055 C 
BRANCH  34  35
ATOM     35  CG  PHE A   2     -13.072  27.056 -11.183  0.00  0.00    -0.020 A 
ATOM     36  CD2 PHE A   2     -14.299  27.611 -10.840  0.00  0.00    -0.004 A 
ATOM     37  CE2 PHE A   2     -15.377  27.576 -11.723  0.00  0.00    -0.000 A 
ATOM     38  CZ  PHE A   2     -15.227  26.976 -12.971  0.00  0.00    -0.000 A 
ATOM     39  CE1 PHE A   2     -14.001  26.419 -13.329  0.00  0.00    -0.000 A 
ATOM     40  CD1 PHE A   2     -12.932  26.463 -12.435  0.00  0.00    -0.004 A 
ENDBRANCH  34  35
ENDBRANCH  22  34
ENDBRANCH   1  22
TORSDOF 17
REMARK  Name = ../refined-set-2016/1hdq/1hdq_pocket.pdb
REMARK  161 active torsions:
REMARK  status: ('A' for Active; 'I' for Inactive)
REMARK    1  A    between atoms: _1  and  _3
REMARK    2  A    between atoms: _3  and  _4
REMARK    3  A    between atoms: _3  and  _6
REMARK    4  A    between atoms: _6  and  _7
REMARK    5  A    between atoms: _10  and  _12
REMARK    6  A    between atoms: _12  and  _13
REMARK    7  A    between atoms: _12  and  _15
REMARK    8  A    between atoms: _15  and  _16
REMARK    9  A    between atoms: _17  and  ZN_385
REMARK   10  A    between atoms: _21  and  _23
REMARK   11  A    between atoms: _23  and  _24
REMARK   12  A    between atoms: _23  and  _26
REMARK   13  A    between atoms: _26  and  _27
REMARK   14  A    between atoms: _27  and  _28
REMARK   15  A    between atoms: _28  and  _29
REMARK   16  A    between atoms: _38  and  _40
REMARK   17  A    between atoms: _40  and  _41
REMARK   18  A    between atoms: _40  and  _43
REMARK   19  A    between atoms: _43  and  _44
REMARK   20  A    between atoms: _44  and  _45
REMARK   21  A    between atoms: _48  and  _50
REMARK   22  A    between atoms: _50  and  _51
REMARK   23  A    between atoms: _50  and  _53
REMARK   24  A    between atoms: _53  and  _54
REMARK   25  A    between atoms: _57  and  _59
REMARK   26  A    between atoms: _59  and  _60
REMARK   27  A    between atoms: _59  and  _62
REMARK   28  A    between atoms: _62  and  _63
REMARK   29  A    between atoms: _63  and  _64
REMARK   30  A    between atoms: _64  and  _65
REMARK   31  A    between atoms: _74  and  _76
REMARK   32  A    between atoms: _76  and  _77
REMARK   33  A    between atoms: _76  and  _79
REMARK   34  A    between atoms: _79  and  _80
REMARK   35  A    between atoms: _83  and  _85
REMARK   36  A    between atoms: _85  and  _86
REMARK   37  A    between atoms: _85  and  _88
REMARK   38  A    between atoms: _88  and  _89
REMARK   39  A    between atoms: _94  and  _96
REMARK   40  A    between atoms: _96  and  _97
REMARK   41  A    between atoms: _96  and  _99
REMARK   42  A    between atoms: _99  and  _100
REMARK   43  A    between atoms: _100  and  _101
REMARK   44  A    between atoms: _101  and  _102
REMARK   45  A    between atoms: _111  and  _113
REMARK   46  A    between atoms: _113  and  _114
REMARK   47  A    between atoms: _116  and  _118
REMARK   48  A    between atoms: _118  and  _119
REMARK   49  A    between atoms: _118  and  _121
REMARK   50  A    between atoms: _121  and  _122
REMARK   51  A    between atoms: _122  and  _123
REMARK   52  A    between atoms: _126  and  _128
REMARK   53  A    between atoms: _128  and  _129
REMARK   54  A    between atoms: _128  and  _131
REMARK   55  A    between atoms: _131  and  _132
REMARK   56  A    between atoms: _135  and  _137
REMARK   57  A    between atoms: _137  and  _138
REMARK   58  A    between atoms: _137  and  _140
REMARK   59  A    between atoms: _140  and  _141
REMARK   60  A    between atoms: _143  and  _145
REMARK   61  A    between atoms: _145  and  _146
REMARK   62  A    between atoms: _145  and  _148
REMARK   63  A    between atoms: _148  and  _149
REMARK   64  A    between atoms: _152  and  _154
REMARK   65  A    between atoms: _154  and  _155
REMARK   66  A    between atoms: _154  and  _157
REMARK   67  A    between atoms: _157  and  _158
REMARK   68  A    between atoms: _159  and  ZN_385
REMARK   69  A    between atoms: _163  and  _165
REMARK   70  A    between atoms: _165  and  _166
REMARK   71  A    between atoms: _165  and  _168
REMARK   72  A    between atoms: _168  and  _169
REMARK   73  A    between atoms: _171  and  _173
REMARK   74  A    between atoms: _173  and  _174
REMARK   75  A    between atoms: _173  and  _176
REMARK   76  A    between atoms: _176  and  _177
REMARK   77  A    between atoms: _182  and  _183
REMARK   78  A    between atoms: _185  and  _187
REMARK   79  A    between atoms: _187  and  _188
REMARK   80  A    between atoms: _187  and  _190
REMARK   81  A    between atoms: _190  and  _191
REMARK   82  A    between atoms: _193  and  _195
REMARK   83  A    between atoms: _195  and  _196
REMARK   84  A    between atoms: _195  and  _198
REMARK   85  A    between atoms: _198  and  _199
REMARK   86  A    between atoms: _202  and  _204
REMARK   87  A    between atoms: _204  and  _205
REMARK   88  A    between atoms: _204  and  _207
REMARK   89  A    between atoms: _207  and  _208
REMARK   90  A    between atoms: _211  and  _213
REMARK   91  A    between atoms: _213  and  _214
REMARK   92  A    between atoms: _216  and  _218
REMARK   93  A    between atoms: _218  and  _219
REMARK   94  A    between atoms: _218  and  _221
REMARK   95  A    between atoms: _221  and  _222
REMARK   96  A    between atoms: _227  and  _228
REMARK   97  A    between atoms: _230  and  _232
REMARK   98  A    between atoms: _232  and  _233
REMARK   99  A    between atoms: _232  and  _235
REMARK  100  A    between atoms: _235  and  _236
REMARK  101  A    between atoms: _239  and  _241
REMARK  102  A    between atoms: _241  and  _242
REMARK  103  A    between atoms: _241  and  _244
REMARK  104  A    between atoms: _244  and  _245
REMARK  105  A    between atoms: _248  and  _250
REMARK  106  A    between atoms: _250  and  _251
REMARK  107  A    between atoms: _250  and  _253
REMARK  108  A    between atoms: _253  and  _254
REMARK  109  A    between atoms: _257  and  _259
REMARK  110  A    between atoms: _259  and  _260
REMARK  111  A    between atoms: _259  and  _262
REMARK  112  A    between atoms: _262  and  _263
REMARK  113  A    between atoms: _268  and  _269
REMARK  114  A    between atoms: _271  and  _273
REMARK  115  A    between atoms: _273  and  _274
REMARK  116  A    between atoms: _273  and  _276
REMARK  117  A    between atoms: _276  and  _277
REMARK  118  A    between atoms: _277  and  _278
REMARK  119  A    between atoms: _283  and  _285
REMARK  120  A    between atoms: _285  and  _286
REMARK  121  A    between atoms: _289  and  _291
REMARK  122  A    between atoms: _291  and  _292
REMARK  123  A    between atoms: _291  and  _294
REMARK  124  A    between atoms: _294  and  _295
REMARK  125  A    between atoms: _297  and  _299
REMARK  126  A    between atoms: _299  and  _300
REMARK  127  A    between atoms: _302  and  _304
REMARK  128  A    between atoms: _304  and  _305
REMARK  129  A    between atoms: _307  and  _309
REMARK  130  A    between atoms: _309  and  _310
REMARK  131  A    between atoms: _309  and  _312
REMARK  132  A    between atoms: _312  and  _313
REMARK  133  A    between atoms: _315  and  _317
REMARK  134  A    between atoms: _317  and  _318
REMARK  135  A    between atoms: _317  and  _320
REMARK  136  A    between atoms: _320  and  _321
REMARK  137  A    between atoms: _324  and  _326
REMARK  138  A    between atoms: _326  and  _327
REMARK  139  A    between atoms: _326  and  _329
REMARK  140  A    between atoms: _329  and  _330
REMARK  141  A    between atoms: _333  and  _335
REMARK  142  A    between atoms: _335  and  _336
REMARK  143  A    between atoms: _335  and  _338
REMARK  144  A    between atoms: _338  and  _339
REMARK  145  A    between atoms: _342  and  _344
REMARK  146  A    between atoms: _344  and  _345
REMARK  147  A    between atoms: _344  and  _347
REMARK  148  A    between atoms: _347  and  _348
REMARK  149  A    between atoms: _354  and  _356
REMARK  150  A    between atoms: _356  and  _357
REMARK  151  A    between atoms: _356  and  _359
REMARK  152  A    between atoms: _359  and  _360
REMARK  153  A    between atoms: _360  and  _361
REMARK  154  A    between atoms: _364  and  _366
REMARK  155  A    between atoms: _366  and  _367
REMARK  156  A    between atoms: _366  and  _369
REMARK  157  A    between atoms: _369  and  _370
REMARK  158  A    between atoms: _373  and  _375
REMARK  159  A    between atoms: _375  and  _376
REMARK  160  A    between atoms: _375  and  _378
REMARK  161  A    between atoms: _378  and  _379
REMARK                            x       y       z     vdW  Elec       q    Type
REMARK                         _______ _______ _______ _____ _____    ______ ____
ROOT
ATOM      1  CB  PHE A   1      -5.304  27.111   3.236  0.00  0.00    +0.051 C 
ENDROOT
BRANCH   1   2
ATOM      2  CG  PHE A   1      -4.549  27.920   2.221  0.00  0.00    -0.020 A 
ATOM      3  CD2 PHE A   1      -3.547  28.799   2.620  0.00  0.00    -0.004 A 
ATOM      4  CE2 PHE A   1      -2.856  29.567   1.678  0.00  0.00    -0.000 A 
ATOM      5  CZ  PHE A   1      -3.172  29.456   0.322  0.00  0.00    -0.000 A 
ATOM      6  CE1 PHE A   1      -4.169  28.582  -0.084  0.00  0.00    -0.000 A 
ATOM      7  CD1 PHE A   1      -4.852  27.817   0.866  0.00  0.00    -0.004 A 
ENDBRANCH   1   2
BRANCH   1   8
ATOM      8  CA  PHE A   1      -6.797  27.438   3.299  0.00  0.00    +0.137 C 
BRANCH   8   9
ATOM      9  N   PHE A   1      -6.977  28.858   3.575  0.00  0.00    -0.239 NA
ATOM     10  H   PHE A   1      -6.155  29.421   3.872  0.00  0.00    +0.142 HD
ENDBRANCH   8   9
BRANCH   8  11
ATOM     11  C   PHE A   1      -7.469  26.527   4.326  0.00  0.00    +0.224 C 
ATOM     12  O   PHE A   1      -7.664  25.335   4.070  0.00  0.00    -0.287 OA
ENDBRANCH   8  11
ENDBRANCH   1   8
TORSDOF 4
REMARK  Name = ../refined-set-2016/1hdq/1hdq_pocket.pdb
REMARK  161 active torsions:
REMARK  status: ('A' for Active; 'I' for Inactive)
REMARK    1  A    between atoms: _1  and  _3
REMARK    2  A    between atoms: _3  and  _4
REMARK    3  A    between atoms: _3  and  _6
REMARK    4  A    between atoms: _6  and  _7
REMARK    5  A    between atoms: _10  and  _12
REMARK    6  A    between atoms: _12  and  _13
REMARK    7  A    between atoms: _12  and  _15
REMARK    8  A    between atoms: _15  and  _16
REMARK    9  A    between atoms: _17  and  ZN_385
REMARK   10  A    between atoms: _21  and  _23
REMARK   11  A    between atoms: _23  and  _24
REMARK   12  A    between atoms: _23  and  _26
REMARK   13  A    between atoms: _26  and  _27
REMARK   14  A    between atoms: _27  and  _28
REMARK   15  A    between atoms: _28  and  _29
REMARK   16  A    between atoms: _38  and  _40
REMARK   17  A    between atoms: _40  and  _41
REMARK   18  A    between atoms: _40  and  _43
REMARK   19  A    between atoms: _43  and  _44
REMARK   20  A    between atoms: _44  and  _45
REMARK   21  A    between atoms: _48  and  _50
REMARK   22  A    between atoms: _50  and  _51
REMARK   23  A    between atoms: _50  and  _53
REMARK   24  A    between atoms: _53  and  _54
REMARK   25  A    between atoms: _57  and  _59
REMARK   26  A    between atoms: _59  and  _60
REMARK   27  A    between atoms: _59  and  _62
REMARK   28  A    between atoms: _62  and  _63
REMARK   29  A    between atoms: _63  and  _64
REMARK   30  A    between atoms: _64  and  _65
REMARK   31  A    between atoms: _74  and  _76
REMARK   32  A    between atoms: _76  and  _77
REMARK   33  A    between atoms: _76  and  _79
REMARK   34  A    between atoms: _79  and  _80
REMARK   35  A    between atoms: _83  and  _85
REMARK   36  A    between atoms: _85  and  _86
REMARK   37  A    between atoms: _85  and  _88
REMARK   38  A    between atoms: _88  and  _89
REMARK   39  A    between atoms: _94  and  _96
REMARK   40  A    between atoms: _96  and  _97
REMARK   41  A    between atoms: _96  and  _99
REMARK   42  A    between atoms: _99  and  _100
REMARK   43  A    between atoms: _100  and  _101
REMARK   44  A    between atoms: _101  and  _102
REMARK   45  A    between atoms: _111  and  _113
REMARK   46  A    between atoms: _113  and  _114
REMARK   47  A    between atoms: _116  and  _118
REMARK   48  A    between atoms: _118  and  _119
REMARK   49  A    between atoms: _118  and  _121
REMARK   50  A    between atoms: _121  and  _122
REMARK   51  A    between atoms: _122  and  _123
REMARK   52  A    between atoms: _126  and  _128
REMARK   53  A    between atoms: _128  and  _129
REMARK   54  A    between atoms: _128  and  _131
REMARK   55  A    between atoms: _131  and  _132
REMARK   56  A    between atoms: _135  and  _137
REMARK   57  A    between atoms: _137  and  _138
REMARK   58  A    between atoms: _137  and  _140
REMARK   59  A    between atoms: _140  and  _141
REMARK   60  A    between atoms: _143  and  _145
REMARK   61  A    between atoms: _145  and  _146
REMARK   62  A    between atoms: _145  and  _148
REMARK   63  A    between atoms: _148  and  _149
REMARK   64  A    between atoms: _152  and  _154
REMARK   65  A    between atoms: _154  and  _155
REMARK   66  A    between atoms: _154  and  _157
REMARK   67  A    between atoms: _157  and  _158
REMARK   68  A    between atoms: _159  and  ZN_385
REMARK   69  A    between atoms: _163  and  _165
REMARK   70  A    between atoms: _165  and  _166
REMARK   71  A    between atoms: _165  and  _168
REMARK   72  A    between atoms: _168  and  _169
REMARK   73  A    between atoms: _171  and  _173
REMARK   74  A    between atoms: _173  and  _174
REMARK   75  A    between atoms: _173  and  _176
REMARK   76  A    between atoms: _176  and  _177
REMARK   77  A    between atoms: _182  and  _183
REMARK   78  A    between atoms: _185  and  _187
REMARK   79  A    between atoms: _187  and  _188
REMARK   80  A    between atoms: _187  and  _190
REMARK   81  A    between atoms: _190  and  _191
REMARK   82  A    between atoms: _193  and  _195
REMARK   83  A    between atoms: _195  and  _196
REMARK   84  A    between atoms: _195  and  _198
REMARK   85  A    between atoms: _198  and  _199
REMARK   86  A    between atoms: _202  and  _204
REMARK   87  A    between atoms: _204  and  _205
REMARK   88  A    between atoms: _204  and  _207
REMARK   89  A    between atoms: _207  and  _208
REMARK   90  A    between atoms: _211  and  _213
REMARK   91  A    between atoms: _213  and  _214
REMARK   92  A    between atoms: _216  and  _218
REMARK   93  A    between atoms: _218  and  _219
REMARK   94  A    between atoms: _218  and  _221
REMARK   95  A    between atoms: _221  and  _222
REMARK   96  A    between atoms: _227  and  _228
REMARK   97  A    between atoms: _230  and  _232
REMARK   98  A    between atoms: _232  and  _233
REMARK   99  A    between atoms: _232  and  _235
REMARK  100  A    between atoms: _235  and  _236
REMARK  101  A    between atoms: _239  and  _241
REMARK  102  A    between atoms: _241  and  _242
REMARK  103  A    between atoms: _241  and  _244
REMARK  104  A    between atoms: _244  and  _245
REMARK  105  A    between atoms: _248  and  _250
REMARK  106  A    between atoms: _250  and  _251
REMARK  107  A    between atoms: _250  and  _253
REMARK  108  A    between atoms: _253  and  _254
REMARK  109  A    between atoms: _257  and  _259
REMARK  110  A    between atoms: _259  and  _260
REMARK  111  A    between atoms: _259  and  _262
REMARK  112  A    between atoms: _262  and  _263
REMARK  113  A    between atoms: _268  and  _269
REMARK  114  A    between atoms: _271  and  _273
REMARK  115  A    between atoms: _273  and  _274
REMARK  116  A    between atoms: _273  and  _276
REMARK  117  A    between atoms: _276  and  _277
REMARK  118  A    between atoms: _277  and  _278
REMARK  119  A    between atoms: _283  and  _285
REMARK  120  A    between atoms: _285  and  _286
REMARK  121  A    between atoms: _289  and  _291
REMARK  122  A    between atoms: _291  and  _292
REMARK  123  A    between atoms: _291  and  _294
REMARK  124  A    between atoms: _294  and  _295
REMARK  125  A    between atoms: _297  and  _299
REMARK  126  A    between atoms: _299  and  _300
REMARK  127  A    between atoms: _302  and  _304
REMARK  128  A    between atoms: _304  and  _305
REMARK  129  A    between atoms: _307  and  _309
REMARK  130  A    between atoms: _309  and  _310
REMARK  131  A    between atoms: _309  and  _312
REMARK  132  A    between atoms: _312  and  _313
REMARK  133  A    between atoms: _315  and  _317
REMARK  134  A    between atoms: _317  and  _318
REMARK  135  A    between atoms: _317  and  _320
REMARK  136  A    between atoms: _320  and  _321
REMARK  137  A    between atoms: _324  and  _326
REMARK  138  A    between atoms: _326  and  _327
REMARK  139  A    between atoms: _326  and  _329
REMARK  140  A    between atoms: _329  and  _330
REMARK  141  A    between atoms: _333  and  _335
REMARK  142  A    between atoms: _335  and  _336
REMARK  143  A    between atoms: _335  and  _338
REMARK  144  A    between atoms: _338  and  _339
REMARK  145  A    between atoms: _342  and  _344
REMARK  146  A    between atoms: _344  and  _345
REMARK  147  A    between atoms: _344  and  _347
REMARK  148  A    between atoms: _347  and  _348
REMARK  149  A    between atoms: _354  and  _356
REMARK  150  A    between atoms: _356  and  _357
REMARK  151  A    between atoms: _356  and  _359
REMARK  152  A    between atoms: _359  and  _360
REMARK  153  A    between atoms: _360  and  _361
REMARK  154  A    between atoms: _364  and  _366
REMARK  155  A    between atoms: _366  and  _367
REMARK  156  A    between atoms: _366  and  _369
REMARK  157  A    between atoms: _369  and  _370
REMARK  158  A    between atoms: _373  and  _375
REMARK  159  A    between atoms: _375  and  _376
REMARK  160  A    between atoms: _375  and  _378
REMARK  161  A    between atoms: _378  and  _379
REMARK                            x       y       z     vdW  Elec       q    Type
REMARK                         _______ _______ _______ _____ _____    ______ ____
ROOT
ATOM      1  O   HOH     1      -1.426  27.652  -2.125  0.00  0.00    +0.000 OA
ENDROOT
TORSDOF 0
REMARK  Name = ../refined-set-2016/1hdq/1hdq_pocket.pdb
REMARK  161 active torsions:
REMARK  status: ('A' for Active; 'I' for Inactive)
REMARK    1  A    between atoms: _1  and  _3
REMARK    2  A    between atoms: _3  and  _4
REMARK    3  A    between atoms: _3  and  _6
REMARK    4  A    between atoms: _6  and  _7
REMARK    5  A    between atoms: _10  and  _12
REMARK    6  A    between atoms: _12  and  _13
REMARK    7  A    between atoms: _12  and  _15
REMARK    8  A    between atoms: _15  and  _16
REMARK    9  A    between atoms: _17  and  ZN_385
REMARK   10  A    between atoms: _21  and  _23
REMARK   11  A    between atoms: _23  and  _24
REMARK   12  A    between atoms: _23  and  _26
REMARK   13  A    between atoms: _26  and  _27
REMARK   14  A    between atoms: _27  and  _28
REMARK   15  A    between atoms: _28  and  _29
REMARK   16  A    between atoms: _38  and  _40
REMARK   17  A    between atoms: _40  and  _41
REMARK   18  A    between atoms: _40  and  _43
REMARK   19  A    between atoms: _43  and  _44
REMARK   20  A    between atoms: _44  and  _45
REMARK   21  A    between atoms: _48  and  _50
REMARK   22  A    between atoms: _50  and  _51
REMARK   23  A    between atoms: _50  and  _53
REMARK   24  A    between atoms: _53  and  _54
REMARK   25  A    between atoms: _57  and  _59
REMARK   26  A    between atoms: _59  and  _60
REMARK   27  A    between atoms: _59  and  _62
REMARK   28  A    between atoms: _62  and  _63
REMARK   29  A    between atoms: _63  and  _64
REMARK   30  A    between atoms: _64  and  _65
REMARK   31  A    between atoms: _74  and  _76
REMARK   32  A    between atoms: _76  and  _77
REMARK   33  A    between atoms: _76  and  _79
REMARK   34  A    between atoms: _79  and  _80
REMARK   35  A    between atoms: _83  and  _85
REMARK   36  A    between atoms: _85  and  _86
REMARK   37  A    between atoms: _85  and  _88
REMARK   38  A    between atoms: _88  and  _89
REMARK   39  A    between atoms: _94  and  _96
REMARK   40  A    between atoms: _96  and  _97
REMARK   41  A    between atoms: _96  and  _99
REMARK   42  A    between atoms: _99  and  _100
REMARK   43  A    between atoms: _100  and  _101
REMARK   44  A    between atoms: _101  and  _102
REMARK   45  A    between atoms: _111  and  _113
REMARK   46  A    between atoms: _113  and  _114
REMARK   47  A    between atoms: _116  and  _118
REMARK   48  A    between atoms: _118  and  _119
REMARK   49  A    between atoms: _118  and  _121
REMARK   50  A    between atoms: _121  and  _122
REMARK   51  A    between atoms: _122  and  _123
REMARK   52  A    between atoms: _126  and  _128
REMARK   53  A    between atoms: _128  and  _129
REMARK   54  A    between atoms: _128  and  _131
REMARK   55  A    between atoms: _131  and  _132
REMARK   56  A    between atoms: _135  and  _137
REMARK   57  A    between atoms: _137  and  _138
REMARK   58  A    between atoms: _137  and  _140
REMARK   59  A    between atoms: _140  and  _141
REMARK   60  A    between atoms: _143  and  _145
REMARK   61  A    between atoms: _145  and  _146
REMARK   62  A    between atoms: _145  and  _148
REMARK   63  A    between atoms: _148  and  _149
REMARK   64  A    between atoms: _152  and  _154
REMARK   65  A    between atoms: _154  and  _155
REMARK   66  A    between atoms: _154  and  _157
REMARK   67  A    between atoms: _157  and  _158
REMARK   68  A    between atoms: _159  and  ZN_385
REMARK   69  A    between atoms: _163  and  _165
REMARK   70  A    between atoms: _165  and  _166
REMARK   71  A    between atoms: _165  and  _168
REMARK   72  A    between atoms: _168  and  _169
REMARK   73  A    between atoms: _171  and  _173
REMARK   74  A    between atoms: _173  and  _174
REMARK   75  A    between atoms: _173  and  _176
REMARK   76  A    between atoms: _176  and  _177
REMARK   77  A    between atoms: _182  and  _183
REMARK   78  A    between atoms: _185  and  _187
REMARK   79  A    between atoms: _187  and  _188
REMARK   80  A    between atoms: _187  and  _190
REMARK   81  A    between atoms: _190  and  _191
REMARK   82  A    between atoms: _193  and  _195
REMARK   83  A    between atoms: _195  and  _196
REMARK   84  A    between atoms: _195  and  _198
REMARK   85  A    between atoms: _198  and  _199
REMARK   86  A    between atoms: _202  and  _204
REMARK   87  A    between atoms: _204  and  _205
REMARK   88  A    between atoms: _204  and  _207
REMARK   89  A    between atoms: _207  and  _208
REMARK   90  A    between atoms: _211  and  _213
REMARK   91  A    between atoms: _213  and  _214
REMARK   92  A    between atoms: _216  and  _218
REMARK   93  A    between atoms: _218  and  _219
REMARK   94  A    between atoms: _218  and  _221
REMARK   95  A    between atoms: _221  and  _222
REMARK   96  A    between atoms: _227  and  _228
REMARK   97  A    between atoms: _230  and  _232
REMARK   98  A    between atoms: _232  and  _233
REMARK   99  A    between atoms: _232  and  _235
REMARK  100  A    between atoms: _235  and  _236
REMARK  101  A    between atoms: _239  and  _241
REMARK  102  A    between atoms: _241  and  _242
REMARK  103  A    between atoms: _241  and  _244
REMARK  104  A    between atoms: _244  and  _245
REMARK  105  A    between atoms: _248  and  _250
REMARK  106  A    between atoms: _250  and  _251
REMARK  107  A    between atoms: _250  and  _253
REMARK  108  A    between atoms: _253  and  _254
REMARK  109  A    between atoms: _257  and  _259
REMARK  110  A    between atoms: _259  and  _260
REMARK  111  A    between atoms: _259  and  _262
REMARK  112  A    between atoms: _262  and  _263
REMARK  113  A    between atoms: _268  and  _269
REMARK  114  A    between atoms: _271  and  _273
REMARK  115  A    between atoms: _273  and  _274
REMARK  116  A    between atoms: _273  and  _276
REMARK  117  A    between atoms: _276  and  _277
REMARK  118  A    between atoms: _277  and  _278
REMARK  119  A    between atoms: _283  and  _285
REMARK  120  A    between atoms: _285  and  _286
REMARK  121  A    between atoms: _289  and  _291
REMARK  122  A    between atoms: _291  and  _292
REMARK  123  A    between atoms: _291  and  _294
REMARK  124  A    between atoms: _294  and  _295
REMARK  125  A    between atoms: _297  and  _299
REMARK  126  A    between atoms: _299  and  _300
REMARK  127  A    between atoms: _302  and  _304
REMARK  128  A    between atoms: _304  and  _305
REMARK  129  A    between atoms: _307  and  _309
REMARK  130  A    between atoms: _309  and  _310
REMARK  131  A    between atoms: _309  and  _312
REMARK  132  A    between atoms: _312  and  _313
REMARK  133  A    between atoms: _315  and  _317
REMARK  134  A    between atoms: _317  and  _318
REMARK  135  A    between atoms: _317  and  _320
REMARK  136  A    between atoms: _320  and  _321
REMARK  137  A    between atoms: _324  and  _326
REMARK  138  A    between atoms: _326  and  _327
REMARK  139  A    between atoms: _326  and  _329
REMARK  140  A    between atoms: _329  and  _330
REMARK  141  A    between atoms: _333  and  _335
REMARK  142  A    between atoms: _335  and  _336
REMARK  143  A    between atoms: _335  and  _338
REMARK  144  A    between atoms: _338  and  _339
REMARK  145  A    between atoms: _342  and  _344
REMARK  146  A    between atoms: _344  and  _345
REMARK  147  A    between atoms: _344  and  _347
REMARK  148  A    between atoms: _347  and  _348
REMARK  149  A    between atoms: _354  and  _356
REMARK  150  A    between atoms: _356  and  _357
REMARK  151  A    between atoms: _356  and  _359
REMARK  152  A    between atoms: _359  and  _360
REMARK  153  A    between atoms: _360  and  _361
REMARK  154  A    between atoms: _364  and  _366
REMARK  155  A    between atoms: _366  and  _367
REMARK  156  A    between atoms: _366  and  _369
REMARK  157  A    between atoms: _369  and  _370
REMARK  158  A    between atoms: _373  and  _375
REMARK  159  A    between atoms: _375  and  _376
REMARK  160  A    between atoms: _375  and  _378
REMARK  161  A    between atoms: _378  and  _379
REMARK                            x       y       z     vdW  Elec       q    Type
REMARK                         _______ _______ _______ _____ _____    ______ ____
ROOT
ATOM      1  O   HOH     1      -5.033  22.855  -5.996  0.00  0.00    +0.000 OA
ENDROOT
TORSDOF 0
REMARK  Name = ../refined-set-2016/1hdq/1hdq_pocket.pdb
REMARK  161 active torsions:
REMARK  status: ('A' for Active; 'I' for Inactive)
REMARK    1  A    between atoms: _1  and  _3
REMARK    2  A    between atoms: _3  and  _4
REMARK    3  A    between atoms: _3  and  _6
REMARK    4  A    between atoms: _6  and  _7
REMARK    5  A    between atoms: _10  and  _12
REMARK    6  A    between atoms: _12  and  _13
REMARK    7  A    between atoms: _12  and  _15
REMARK    8  A    between atoms: _15  and  _16
REMARK    9  A    between atoms: _17  and  ZN_385
REMARK   10  A    between atoms: _21  and  _23
REMARK   11  A    between atoms: _23  and  _24
REMARK   12  A    between atoms: _23  and  _26
REMARK   13  A    between atoms: _26  and  _27
REMARK   14  A    between atoms: _27  and  _28
REMARK   15  A    between atoms: _28  and  _29
REMARK   16  A    between atoms: _38  and  _40
REMARK   17  A    between atoms: _40  and  _41
REMARK   18  A    between atoms: _40  and  _43
REMARK   19  A    between atoms: _43  and  _44
REMARK   20  A    between atoms: _44  and  _45
REMARK   21  A    between atoms: _48  and  _50
REMARK   22  A    between atoms: _50  and  _51
REMARK   23  A    between atoms: _50  and  _53
REMARK   24  A    between atoms: _53  and  _54
REMARK   25  A    between atoms: _57  and  _59
REMARK   26  A    between atoms: _59  and  _60
REMARK   27  A    between atoms: _59  and  _62
REMARK   28  A    between atoms: _62  and  _63
REMARK   29  A    between atoms: _63  and  _64
REMARK   30  A    between atoms: _64  and  _65
REMARK   31  A    between atoms: _74  and  _76
REMARK   32  A    between atoms: _76  and  _77
REMARK   33  A    between atoms: _76  and  _79
REMARK   34  A    between atoms: _79  and  _80
REMARK   35  A    between atoms: _83  and  _85
REMARK   36  A    between atoms: _85  and  _86
REMARK   37  A    between atoms: _85  and  _88
REMARK   38  A    between atoms: _88  and  _89
REMARK   39  A    between atoms: _94  and  _96
REMARK   40  A    between atoms: _96  and  _97
REMARK   41  A    between atoms: _96  and  _99
REMARK   42  A    between atoms: _99  and  _100
REMARK   43  A    between atoms: _100  and  _101
REMARK   44  A    between atoms: _101  and  _102
REMARK   45  A    between atoms: _111  and  _113
REMARK   46  A    between atoms: _113  and  _114
REMARK   47  A    between atoms: _116  and  _118
REMARK   48  A    between atoms: _118  and  _119
REMARK   49  A    between atoms: _118  and  _121
REMARK   50  A    between atoms: _121  and  _122
REMARK   51  A    between atoms: _122  and  _123
REMARK   52  A    between atoms: _126  and  _128
REMARK   53  A    between atoms: _128  and  _129
REMARK   54  A    between atoms: _128  and  _131
REMARK   55  A    between atoms: _131  and  _132
REMARK   56  A    between atoms: _135  and  _137
REMARK   57  A    between atoms: _137  and  _138
REMARK   58  A    between atoms: _137  and  _140
REMARK   59  A    between atoms: _140  and  _141
REMARK   60  A    between atoms: _143  and  _145
REMARK   61  A    between atoms: _145  and  _146
REMARK   62  A    between atoms: _145  and  _148
REMARK   63  A    between atoms: _148  and  _149
REMARK   64  A    between atoms: _152  and  _154
REMARK   65  A    between atoms: _154  and  _155
REMARK   66  A    between atoms: _154  and  _157
REMARK   67  A    between atoms: _157  and  _158
REMARK   68  A    between atoms: _159  and  ZN_385
REMARK   69  A    between atoms: _163  and  _165
REMARK   70  A    between atoms: _165  and  _166
REMARK   71  A    between atoms: _165  and  _168
REMARK   72  A    between atoms: _168  and  _169
REMARK   73  A    between atoms: _171  and  _173
REMARK   74  A    between atoms: _173  and  _174
REMARK   75  A    between atoms: _173  and  _176
REMARK   76  A    between atoms: _176  and  _177
REMARK   77  A    between atoms: _182  and  _183
REMARK   78  A    between atoms: _185  and  _187
REMARK   79  A    between atoms: _187  and  _188
REMARK   80  A    between atoms: _187  and  _190
REMARK   81  A    between atoms: _190  and  _191
REMARK   82  A    between atoms: _193  and  _195
REMARK   83  A    between atoms: _195  and  _196
REMARK   84  A    between atoms: _195  and  _198
REMARK   85  A    between atoms: _198  and  _199
REMARK   86  A    between atoms: _202  and  _204
REMARK   87  A    between atoms: _204  and  _205
REMARK   88  A    between atoms: _204  and  _207
REMARK   89  A    between atoms: _207  and  _208
REMARK   90  A    between atoms: _211  and  _213
REMARK   91  A    between atoms: _213  and  _214
REMARK   92  A    between atoms: _216  and  _218
REMARK   93  A    between atoms: _218  and  _219
REMARK   94  A    between atoms: _218  and  _221
REMARK   95  A    between atoms: _221  and  _222
REMARK   96  A    between atoms: _227  and  _228
REMARK   97  A    between atoms: _230  and  _232
REMARK   98  A    between atoms: _232  and  _233
REMARK   99  A    between atoms: _232  and  _235
REMARK  100  A    between atoms: _235  and  _236
REMARK  101  A    between atoms: _239  and  _241
REMARK  102  A    between atoms: _241  and  _242
REMARK  103  A    between atoms: _241  and  _244
REMARK  104  A    between atoms: _244  and  _245
REMARK  105  A    between atoms: _248  and  _250
REMARK  106  A    between atoms: _250  and  _251
REMARK  107  A    between atoms: _250  and  _253
REMARK  108  A    between atoms: _253  and  _254
REMARK  109  A    between atoms: _257  and  _259
REMARK  110  A    between atoms: _259  and  _260
REMARK  111  A    between atoms: _259  and  _262
REMARK  112  A    between atoms: _262  and  _263
REMARK  113  A    between atoms: _268  and  _269
REMARK  114  A    between atoms: _271  and  _273
REMARK  115  A    between atoms: _273  and  _274
REMARK  116  A    between atoms: _273  and  _276
REMARK  117  A    between atoms: _276  and  _277
REMARK  118  A    between atoms: _277  and  _278
REMARK  119  A    between atoms: _283  and  _285
REMARK  120  A    between atoms: _285  and  _286
REMARK  121  A    between atoms: _289  and  _291
REMARK  122  A    between atoms: _291  and  _292
REMARK  123  A    between atoms: _291  and  _294
REMARK  124  A    between atoms: _294  and  _295
REMARK  125  A    between atoms: _297  and  _299
REMARK  126  A    between atoms: _299  and  _300
REMARK  127  A    between atoms: _302  and  _304
REMARK  128  A    between atoms: _304  and  _305
REMARK  129  A    between atoms: _307  and  _309
REMARK  130  A    between atoms: _309  and  _310
REMARK  131  A    between atoms: _309  and  _312
REMARK  132  A    between atoms: _312  and  _313
REMARK  133  A    between atoms: _315  and  _317
REMARK  134  A    between atoms: _317  and  _318
REMARK  135  A    between atoms: _317  and  _320
REMARK  136  A    between atoms: _320  and  _321
REMARK  137  A    between atoms: _324  and  _326
REMARK  138  A    between atoms: _326  and  _327
REMARK  139  A    between atoms: _326  and  _329
REMARK  140  A    between atoms: _329  and  _330
REMARK  141  A    between atoms: _333  and  _335
REMARK  142  A    between atoms: _335  and  _336
REMARK  143  A    between atoms: _335  and  _338
REMARK  144  A    between atoms: _338  and  _339
REMARK  145  A    between atoms: _342  and  _344
REMARK  146  A    between atoms: _344  and  _345
REMARK  147  A    between atoms: _344  and  _347
REMARK  148  A    between atoms: _347  and  _348
REMARK  149  A    between atoms: _354  and  _356
REMARK  150  A    between atoms: _356  and  _357
REMARK  151  A    between atoms: _356  and  _359
REMARK  152  A    between atoms: _359  and  _360
REMARK  153  A    between atoms: _360  and  _361
REMARK  154  A    between atoms: _364  and  _366
REMARK  155  A    between atoms: _366  and  _367
REMARK  156  A    between atoms: _366  and  _369
REMARK  157  A    between atoms: _369  and  _370
REMARK  158  A    between atoms: _373  and  _375
REMARK  159  A    between atoms: _375  and  _376
REMARK  160  A    between atoms: _375  and  _378
REMARK  161  A    between atoms: _378  and  _379
REMARK                            x       y       z     vdW  Elec       q    Type
REMARK                         _______ _______ _______ _____ _____    ______ ____
ROOT
ATOM      1  O   HOH     1      -2.915  23.681 -11.765  0.00  0.00    +0.000 OA
ENDROOT
TORSDOF 0
REMARK  Name = ../refined-set-2016/1hdq/1hdq_pocket.pdb
REMARK  161 active torsions:
REMARK  status: ('A' for Active; 'I' for Inactive)
REMARK    1  A    between atoms: _1  and  _3
REMARK    2  A    between atoms: _3  and  _4
REMARK    3  A    between atoms: _3  and  _6
REMARK    4  A    between atoms: _6  and  _7
REMARK    5  A    between atoms: _10  and  _12
REMARK    6  A    between atoms: _12  and  _13
REMARK    7  A    between atoms: _12  and  _15
REMARK    8  A    between atoms: _15  and  _16
REMARK    9  A    between atoms: _17  and  ZN_385
REMARK   10  A    between atoms: _21  and  _23
REMARK   11  A    between atoms: _23  and  _24
REMARK   12  A    between atoms: _23  and  _26
REMARK   13  A    between atoms: _26  and  _27
REMARK   14  A    between atoms: _27  and  _28
REMARK   15  A    between atoms: _28  and  _29
REMARK   16  A    between atoms: _38  and  _40
REMARK   17  A    between atoms: _40  and  _41
REMARK   18  A    between atoms: _40  and  _43
REMARK   19  A    between atoms: _43  and  _44
REMARK   20  A    between atoms: _44  and  _45
REMARK   21  A    between atoms: _48  and  _50
REMARK   22  A    between atoms: _50  and  _51
REMARK   23  A    between atoms: _50  and  _53
REMARK   24  A    between atoms: _53  and  _54
REMARK   25  A    between atoms: _57  and  _59
REMARK   26  A    between atoms: _59  and  _60
REMARK   27  A    between atoms: _59  and  _62
REMARK   28  A    between atoms: _62  and  _63
REMARK   29  A    between atoms: _63  and  _64
REMARK   30  A    between atoms: _64  and  _65
REMARK   31  A    between atoms: _74  and  _76
REMARK   32  A    between atoms: _76  and  _77
REMARK   33  A    between atoms: _76  and  _79
REMARK   34  A    between atoms: _79  and  _80
REMARK   35  A    between atoms: _83  and  _85
REMARK   36  A    between atoms: _85  and  _86
REMARK   37  A    between atoms: _85  and  _88
REMARK   38  A    between atoms: _88  and  _89
REMARK   39  A    between atoms: _94  and  _96
REMARK   40  A    between atoms: _96  and  _97
REMARK   41  A    between atoms: _96  and  _99
REMARK   42  A    between atoms: _99  and  _100
REMARK   43  A    between atoms: _100  and  _101
REMARK   44  A    between atoms: _101  and  _102
REMARK   45  A    between atoms: _111  and  _113
REMARK   46  A    between atoms: _113  and  _114
REMARK   47  A    between atoms: _116  and  _118
REMARK   48  A    between atoms: _118  and  _119
REMARK   49  A    between atoms: _118  and  _121
REMARK   50  A    between atoms: _121  and  _122
REMARK   51  A    between atoms: _122  and  _123
REMARK   52  A    between atoms: _126  and  _128
REMARK   53  A    between atoms: _128  and  _129
REMARK   54  A    between atoms: _128  and  _131
REMARK   55  A    between atoms: _131  and  _132
REMARK   56  A    between atoms: _135  and  _137
REMARK   57  A    between atoms: _137  and  _138
REMARK   58  A    between atoms: _137  and  _140
REMARK   59  A    between atoms: _140  and  _141
REMARK   60  A    between atoms: _143  and  _145
REMARK   61  A    between atoms: _145  and  _146
REMARK   62  A    between atoms: _145  and  _148
REMARK   63  A    between atoms: _148  and  _149
REMARK   64  A    between atoms: _152  and  _154
REMARK   65  A    between atoms: _154  and  _155
REMARK   66  A    between atoms: _154  and  _157
REMARK   67  A    between atoms: _157  and  _158
REMARK   68  A    between atoms: _159  and  ZN_385
REMARK   69  A    between atoms: _163  and  _165
REMARK   70  A    between atoms: _165  and  _166
REMARK   71  A    between atoms: _165  and  _168
REMARK   72  A    between atoms: _168  and  _169
REMARK   73  A    between atoms: _171  and  _173
REMARK   74  A    between atoms: _173  and  _174
REMARK   75  A    between atoms: _173  and  _176
REMARK   76  A    between atoms: _176  and  _177
REMARK   77  A    between atoms: _182  and  _183
REMARK   78  A    between atoms: _185  and  _187
REMARK   79  A    between atoms: _187  and  _188
REMARK   80  A    between atoms: _187  and  _190
REMARK   81  A    between atoms: _190  and  _191
REMARK   82  A    between atoms: _193  and  _195
REMARK   83  A    between atoms: _195  and  _196
REMARK   84  A    between atoms: _195  and  _198
REMARK   85  A    between atoms: _198  and  _199
REMARK   86  A    between atoms: _202  and  _204
REMARK   87  A    between atoms: _204  and  _205
REMARK   88  A    between atoms: _204  and  _207
REMARK   89  A    between atoms: _207  and  _208
REMARK   90  A    between atoms: _211  and  _213
REMARK   91  A    between atoms: _213  and  _214
REMARK   92  A    between atoms: _216  and  _218
REMARK   93  A    between atoms: _218  and  _219
REMARK   94  A    between atoms: _218  and  _221
REMARK   95  A    between atoms: _221  and  _222
REMARK   96  A    between atoms: _227  and  _228
REMARK   97  A    between atoms: _230  and  _232
REMARK   98  A    between atoms: _232  and  _233
REMARK   99  A    between atoms: _232  and  _235
REMARK  100  A    between atoms: _235  and  _236
REMARK  101  A    between atoms: _239  and  _241
REMARK  102  A    between atoms: _241  and  _242
REMARK  103  A    between atoms: _241  and  _244
REMARK  104  A    between atoms: _244  and  _245
REMARK  105  A    between atoms: _248  and  _250
REMARK  106  A    between atoms: _250  and  _251
REMARK  107  A    between atoms: _250  and  _253
REMARK  108  A    between atoms: _253  and  _254
REMARK  109  A    between atoms: _257  and  _259
REMARK  110  A    between atoms: _259  and  _260
REMARK  111  A    between atoms: _259  and  _262
REMARK  112  A    between atoms: _262  and  _263
REMARK  113  A    between atoms: _268  and  _269
REMARK  114  A    between atoms: _271  and  _273
REMARK  115  A    between atoms: _273  and  _274
REMARK  116  A    between atoms: _273  and  _276
REMARK  117  A    between atoms: _276  and  _277
REMARK  118  A    between atoms: _277  and  _278
REMARK  119  A    between atoms: _283  and  _285
REMARK  120  A    between atoms: _285  and  _286
REMARK  121  A    between atoms: _289  and  _291
REMARK  122  A    between atoms: _291  and  _292
REMARK  123  A    between atoms: _291  and  _294
REMARK  124  A    between atoms: _294  and  _295
REMARK  125  A    between atoms: _297  and  _299
REMARK  126  A    between atoms: _299  and  _300
REMARK  127  A    between atoms: _302  and  _304
REMARK  128  A    between atoms: _304  and  _305
REMARK  129  A    between atoms: _307  and  _309
REMARK  130  A    between atoms: _309  and  _310
REMARK  131  A    between atoms: _309  and  _312
REMARK  132  A    between atoms: _312  and  _313
REMARK  133  A    between atoms: _315  and  _317
REMARK  134  A    between atoms: _317  and  _318
REMARK  135  A    between atoms: _317  and  _320
REMARK  136  A    between atoms: _320  and  _321
REMARK  137  A    between atoms: _324  and  _326
REMARK  138  A    between atoms: _326  and  _327
REMARK  139  A    between atoms: _326  and  _329
REMARK  140  A    between atoms: _329  and  _330
REMARK  141  A    between atoms: _333  and  _335
REMARK  142  A    between atoms: _335  and  _336
REMARK  143  A    between atoms: _335  and  _338
REMARK  144  A    between atoms: _338  and  _339
REMARK  145  A    between atoms: _342  and  _344
REMARK  146  A    between atoms: _344  and  _345
REMARK  147  A    between atoms: _344  and  _347
REMARK  148  A    between atoms: _347  and  _348
REMARK  149  A    between atoms: _354  and  _356
REMARK  150  A    between atoms: _356  and  _357
REMARK  151  A    between atoms: _356  and  _359
REMARK  152  A    between atoms: _359  and  _360
REMARK  153  A    between atoms: _360  and  _361
REMARK  154  A    between atoms: _364  and  _366
REMARK  155  A    between atoms: _366  and  _367
REMARK  156  A    between atoms: _366  and  _369
REMARK  157  A    between atoms: _369  and  _370
REMARK  158  A    between atoms: _373  and  _375
REMARK  159  A    between atoms: _375  and  _376
REMARK  160  A    between atoms: _375  and  _378
REMARK  161  A    between atoms: _378  and  _379
REMARK                            x       y       z     vdW  Elec       q    Type
REMARK                         _______ _______ _______ _____ _____    ______ ____
ROOT
ATOM      1  O   HOH     1       2.046  29.423 -12.482  0.00  0.00    +0.000 OA
ENDROOT
TORSDOF 0
REMARK  Name = ../refined-set-2016/1hdq/1hdq_pocket.pdb
REMARK  161 active torsions:
REMARK  status: ('A' for Active; 'I' for Inactive)
REMARK    1  A    between atoms: _1  and  _3
REMARK    2  A    between atoms: _3  and  _4
REMARK    3  A    between atoms: _3  and  _6
REMARK    4  A    between atoms: _6  and  _7
REMARK    5  A    between atoms: _10  and  _12
REMARK    6  A    between atoms: _12  and  _13
REMARK    7  A    between atoms: _12  and  _15
REMARK    8  A    between atoms: _15  and  _16
REMARK    9  A    between atoms: _17  and  ZN_385
REMARK   10  A    between atoms: _21  and  _23
REMARK   11  A    between atoms: _23  and  _24
REMARK   12  A    between atoms: _23  and  _26
REMARK   13  A    between atoms: _26  and  _27
REMARK   14  A    between atoms: _27  and  _28
REMARK   15  A    between atoms: _28  and  _29
REMARK   16  A    between atoms: _38  and  _40
REMARK   17  A    between atoms: _40  and  _41
REMARK   18  A    between atoms: _40  and  _43
REMARK   19  A    between atoms: _43  and  _44
REMARK   20  A    between atoms: _44  and  _45
REMARK   21  A    between atoms: _48  and  _50
REMARK   22  A    between atoms: _50  and  _51
REMARK   23  A    between atoms: _50  and  _53
REMARK   24  A    between atoms: _53  and  _54
REMARK   25  A    between atoms: _57  and  _59
REMARK   26  A    between atoms: _59  and  _60
REMARK   27  A    between atoms: _59  and  _62
REMARK   28  A    between atoms: _62  and  _63
REMARK   29  A    between atoms: _63  and  _64
REMARK   30  A    between atoms: _64  and  _65
REMARK   31  A    between atoms: _74  and  _76
REMARK   32  A    between atoms: _76  and  _77
REMARK   33  A    between atoms: _76  and  _79
REMARK   34  A    between atoms: _79  and  _80
REMARK   35  A    between atoms: _83  and  _85
REMARK   36  A    between atoms: _85  and  _86
REMARK   37  A    between atoms: _85  and  _88
REMARK   38  A    between atoms: _88  and  _89
REMARK   39  A    between atoms: _94  and  _96
REMARK   40  A    between atoms: _96  and  _97
REMARK   41  A    between atoms: _96  and  _99
REMARK   42  A    between atoms: _99  and  _100
REMARK   43  A    between atoms: _100  and  _101
REMARK   44  A    between atoms: _101  and  _102
REMARK   45  A    between atoms: _111  and  _113
REMARK   46  A    between atoms: _113  and  _114
REMARK   47  A    between atoms: _116  and  _118
REMARK   48  A    between atoms: _118  and  _119
REMARK   49  A    between atoms: _118  and  _121
REMARK   50  A    between atoms: _121  and  _122
REMARK   51  A    between atoms: _122  and  _123
REMARK   52  A    between atoms: _126  and  _128
REMARK   53  A    between atoms: _128  and  _129
REMARK   54  A    between atoms: _128  and  _131
REMARK   55  A    between atoms: _131  and  _132
REMARK   56  A    between atoms: _135  and  _137
REMARK   57  A    between atoms: _137  and  _138
REMARK   58  A    between atoms: _137  and  _140
REMARK   59  A    between atoms: _140  and  _141
REMARK   60  A    between atoms: _143  and  _145
REMARK   61  A    between atoms: _145  and  _146
REMARK   62  A    between atoms: _145  and  _148
REMARK   63  A    between atoms: _148  and  _149
REMARK   64  A    between atoms: _152  and  _154
REMARK   65  A    between atoms: _154  and  _155
REMARK   66  A    between atoms: _154  and  _157
REMARK   67  A    between atoms: _157  and  _158
REMARK   68  A    between atoms: _159  and  ZN_385
REMARK   69  A    between atoms: _163  and  _165
REMARK   70  A    between atoms: _165  and  _166
REMARK   71  A    between atoms: _165  and  _168
REMARK   72  A    between atoms: _168  and  _169
REMARK   73  A    between atoms: _171  and  _173
REMARK   74  A    between atoms: _173  and  _174
REMARK   75  A    between atoms: _173  and  _176
REMARK   76  A    between atoms: _176  and  _177
REMARK   77  A    between atoms: _182  and  _183
REMARK   78  A    between atoms: _185  and  _187
REMARK   79  A    between atoms: _187  and  _188
REMARK   80  A    between atoms: _187  and  _190
REMARK   81  A    between atoms: _190  and  _191
REMARK   82  A    between atoms: _193  and  _195
REMARK   83  A    between atoms: _195  and  _196
REMARK   84  A    between atoms: _195  and  _198
REMARK   85  A    between atoms: _198  and  _199
REMARK   86  A    between atoms: _202  and  _204
REMARK   87  A    between atoms: _204  and  _205
REMARK   88  A    between atoms: _204  and  _207
REMARK   89  A    between atoms: _207  and  _208
REMARK   90  A    between atoms: _211  and  _213
REMARK   91  A    between atoms: _213  and  _214
REMARK   92  A    between atoms: _216  and  _218
REMARK   93  A    between atoms: _218  and  _219
REMARK   94  A    between atoms: _218  and  _221
REMARK   95  A    between atoms: _221  and  _222
REMARK   96  A    between atoms: _227  and  _228
REMARK   97  A    between atoms: _230  and  _232
REMARK   98  A    between atoms: _232  and  _233
REMARK   99  A    between atoms: _232  and  _235
REMARK  100  A    between atoms: _235  and  _236
REMARK  101  A    between atoms: _239  and  _241
REMARK  102  A    between atoms: _241  and  _242
REMARK  103  A    between atoms: _241  and  _244
REMARK  104  A    between atoms: _244  and  _245
REMARK  105  A    between atoms: _248  and  _250
REMARK  106  A    between atoms: _250  and  _251
REMARK  107  A    between atoms: _250  and  _253
REMARK  108  A    between atoms: _253  and  _254
REMARK  109  A    between atoms: _257  and  _259
REMARK  110  A    between atoms: _259  and  _260
REMARK  111  A    between atoms: _259  and  _262
REMARK  112  A    between atoms: _262  and  _263
REMARK  113  A    between atoms: _268  and  _269
REMARK  114  A    between atoms: _271  and  _273
REMARK  115  A    between atoms: _273  and  _274
REMARK  116  A    between atoms: _273  and  _276
REMARK  117  A    between atoms: _276  and  _277
REMARK  118  A    between atoms: _277  and  _278
REMARK  119  A    between atoms: _283  and  _285
REMARK  120  A    between atoms: _285  and  _286
REMARK  121  A    between atoms: _289  and  _291
REMARK  122  A    between atoms: _291  and  _292
REMARK  123  A    between atoms: _291  and  _294
REMARK  124  A    between atoms: _294  and  _295
REMARK  125  A    between atoms: _297  and  _299
REMARK  126  A    between atoms: _299  and  _300
REMARK  127  A    between atoms: _302  and  _304
REMARK  128  A    between atoms: _304  and  _305
REMARK  129  A    between atoms: _307  and  _309
REMARK  130  A    between atoms: _309  and  _310
REMARK  131  A    between atoms: _309  and  _312
REMARK  132  A    between atoms: _312  and  _313
REMARK  133  A    between atoms: _315  and  _317
REMARK  134  A    between atoms: _317  and  _318
REMARK  135  A    between atoms: _317  and  _320
REMARK  136  A    between atoms: _320  and  _321
REMARK  137  A    between atoms: _324  and  _326
REMARK  138  A    between atoms: _326  and  _327
REMARK  139  A    between atoms: _326  and  _329
REMARK  140  A    between atoms: _329  and  _330
REMARK  141  A    between atoms: _333  and  _335
REMARK  142  A    between atoms: _335  and  _336
REMARK  143  A    between atoms: _335  and  _338
REMARK  144  A    between atoms: _338  and  _339
REMARK  145  A    between atoms: _342  and  _344
REMARK  146  A    between atoms: _344  and  _345
REMARK  147  A    between atoms: _344  and  _347
REMARK  148  A    between atoms: _347  and  _348
REMARK  149  A    between atoms: _354  and  _356
REMARK  150  A    between atoms: _356  and  _357
REMARK  151  A    between atoms: _356  and  _359
REMARK  152  A    between atoms: _359  and  _360
REMARK  153  A    between atoms: _360  and  _361
REMARK  154  A    between atoms: _364  and  _366
REMARK  155  A    between atoms: _366  and  _367
REMARK  156  A    between atoms: _366  and  _369
REMARK  157  A    between atoms: _369  and  _370
REMARK  158  A    between atoms: _373  and  _375
REMARK  159  A    between atoms: _375  and  _376
REMARK  160  A    between atoms: _375  and  _378
REMARK  161  A    between atoms: _378  and  _379
REMARK                            x       y       z     vdW  Elec       q    Type
REMARK                         _______ _______ _______ _____ _____    ______ ____
ROOT
ATOM      1  O   HOH     1       4.172  34.475  -9.227  0.00  0.00    +0.000 OA
ENDROOT
TORSDOF 0
REMARK  Name = ../refined-set-2016/1hdq/1hdq_pocket.pdb
REMARK  161 active torsions:
REMARK  status: ('A' for Active; 'I' for Inactive)
REMARK    1  A    between atoms: _1  and  _3
REMARK    2  A    between atoms: _3  and  _4
REMARK    3  A    between atoms: _3  and  _6
REMARK    4  A    between atoms: _6  and  _7
REMARK    5  A    between atoms: _10  and  _12
REMARK    6  A    between atoms: _12  and  _13
REMARK    7  A    between atoms: _12  and  _15
REMARK    8  A    between atoms: _15  and  _16
REMARK    9  A    between atoms: _17  and  ZN_385
REMARK   10  A    between atoms: _21  and  _23
REMARK   11  A    between atoms: _23  and  _24
REMARK   12  A    between atoms: _23  and  _26
REMARK   13  A    between atoms: _26  and  _27
REMARK   14  A    between atoms: _27  and  _28
REMARK   15  A    between atoms: _28  and  _29
REMARK   16  A    between atoms: _38  and  _40
REMARK   17  A    between atoms: _40  and  _41
REMARK   18  A    between atoms: _40  and  _43
REMARK   19  A    between atoms: _43  and  _44
REMARK   20  A    between atoms: _44  and  _45
REMARK   21  A    between atoms: _48  and  _50
REMARK   22  A    between atoms: _50  and  _51
REMARK   23  A    between atoms: _50  and  _53
REMARK   24  A    between atoms: _53  and  _54
REMARK   25  A    between atoms: _57  and  _59
REMARK   26  A    between atoms: _59  and  _60
REMARK   27  A    between atoms: _59  and  _62
REMARK   28  A    between atoms: _62  and  _63
REMARK   29  A    between atoms: _63  and  _64
REMARK   30  A    between atoms: _64  and  _65
REMARK   31  A    between atoms: _74  and  _76
REMARK   32  A    between atoms: _76  and  _77
REMARK   33  A    between atoms: _76  and  _79
REMARK   34  A    between atoms: _79  and  _80
REMARK   35  A    between atoms: _83  and  _85
REMARK   36  A    between atoms: _85  and  _86
REMARK   37  A    between atoms: _85  and  _88
REMARK   38  A    between atoms: _88  and  _89
REMARK   39  A    between atoms: _94  and  _96
REMARK   40  A    between atoms: _96  and  _97
REMARK   41  A    between atoms: _96  and  _99
REMARK   42  A    between atoms: _99  and  _100
REMARK   43  A    between atoms: _100  and  _101
REMARK   44  A    between atoms: _101  and  _102
REMARK   45  A    between atoms: _111  and  _113
REMARK   46  A    between atoms: _113  and  _114
REMARK   47  A    between atoms: _116  and  _118
REMARK   48  A    between atoms: _118  and  _119
REMARK   49  A    between atoms: _118  and  _121
REMARK   50  A    between atoms: _121  and  _122
REMARK   51  A    between atoms: _122  and  _123
REMARK   52  A    between atoms: _126  and  _128
REMARK   53  A    between atoms: _128  and  _129
REMARK   54  A    between atoms: _128  and  _131
REMARK   55  A    between atoms: _131  and  _132
REMARK   56  A    between atoms: _135  and  _137
REMARK   57  A    between atoms: _137  and  _138
REMARK   58  A    between atoms: _137  and  _140
REMARK   59  A    between atoms: _140  and  _141
REMARK   60  A    between atoms: _143  and  _145
REMARK   61  A    between atoms: _145  and  _146
REMARK   62  A    between atoms: _145  and  _148
REMARK   63  A    between atoms: _148  and  _149
REMARK   64  A    between atoms: _152  and  _154
REMARK   65  A    between atoms: _154  and  _155
REMARK   66  A    between atoms: _154  and  _157
REMARK   67  A    between atoms: _157  and  _158
REMARK   68  A    between atoms: _159  and  ZN_385
REMARK   69  A    between atoms: _163  and  _165
REMARK   70  A    between atoms: _165  and  _166
REMARK   71  A    between atoms: _165  and  _168
REMARK   72  A    between atoms: _168  and  _169
REMARK   73  A    between atoms: _171  and  _173
REMARK   74  A    between atoms: _173  and  _174
REMARK   75  A    between atoms: _173  and  _176
REMARK   76  A    between atoms: _176  and  _177
REMARK   77  A    between atoms: _182  and  _183
REMARK   78  A    between atoms: _185  and  _187
REMARK   79  A    between atoms: _187  and  _188
REMARK   80  A    between atoms: _187  and  _190
REMARK   81  A    between atoms: _190  and  _191
REMARK   82  A    between atoms: _193  and  _195
REMARK   83  A    between atoms: _195  and  _196
REMARK   84  A    between atoms: _195  and  _198
REMARK   85  A    between atoms: _198  and  _199
REMARK   86  A    between atoms: _202  and  _204
REMARK   87  A    between atoms: _204  and  _205
REMARK   88  A    between atoms: _204  and  _207
REMARK   89  A    between atoms: _207  and  _208
REMARK   90  A    between atoms: _211  and  _213
REMARK   91  A    between atoms: _213  and  _214
REMARK   92  A    between atoms: _216  and  _218
REMARK   93  A    between atoms: _218  and  _219
REMARK   94  A    between atoms: _218  and  _221
REMARK   95  A    between atoms: _221  and  _222
REMARK   96  A    between atoms: _227  and  _228
REMARK   97  A    between atoms: _230  and  _232
REMARK   98  A    between atoms: _232  and  _233
REMARK   99  A    between atoms: _232  and  _235
REMARK  100  A    between atoms: _235  and  _236
REMARK  101  A    between atoms: _239  and  _241
REMARK  102  A    between atoms: _241  and  _242
REMARK  103  A    between atoms: _241  and  _244
REMARK  104  A    between atoms: _244  and  _245
REMARK  105  A    between atoms: _248  and  _250
REMARK  106  A    between atoms: _250  and  _251
REMARK  107  A    between atoms: _250  and  _253
REMARK  108  A    between atoms: _253  and  _254
REMARK  109  A    between atoms: _257  and  _259
REMARK  110  A    between atoms: _259  and  _260
REMARK  111  A    between atoms: _259  and  _262
REMARK  112  A    between atoms: _262  and  _263
REMARK  113  A    between atoms: _268  and  _269
REMARK  114  A    between atoms: _271  and  _273
REMARK  115  A    between atoms: _273  and  _274
REMARK  116  A    between atoms: _273  and  _276
REMARK  117  A    between atoms: _276  and  _277
REMARK  118  A    between atoms: _277  and  _278
REMARK  119  A    between atoms: _283  and  _285
REMARK  120  A    between atoms: _285  and  _286
REMARK  121  A    between atoms: _289  and  _291
REMARK  122  A    between atoms: _291  and  _292
REMARK  123  A    between atoms: _291  and  _294
REMARK  124  A    between atoms: _294  and  _295
REMARK  125  A    between atoms: _297  and  _299
REMARK  126  A    between atoms: _299  and  _300
REMARK  127  A    between atoms: _302  and  _304
REMARK  128  A    between atoms: _304  and  _305
REMARK  129  A    between atoms: _307  and  _309
REMARK  130  A    between atoms: _309  and  _310
REMARK  131  A    between atoms: _309  and  _312
REMARK  132  A    between atoms: _312  and  _313
REMARK  133  A    between atoms: _315  and  _317
REMARK  134  A    between atoms: _317  and  _318
REMARK  135  A    between atoms: _317  and  _320
REMARK  136  A    between atoms: _320  and  _321
REMARK  137  A    between atoms: _324  and  _326
REMARK  138  A    between atoms: _326  and  _327
REMARK  139  A    between atoms: _326  and  _329
REMARK  140  A    between atoms: _329  and  _330
REMARK  141  A    between atoms: _333  and  _335
REMARK  142  A    between atoms: _335  and  _336
REMARK  143  A    between atoms: _335  and  _338
REMARK  144  A    between atoms: _338  and  _339
REMARK  145  A    between atoms: _342  and  _344
REMARK  146  A    between atoms: _344  and  _345
REMARK  147  A    between atoms: _344  and  _347
REMARK  148  A    between atoms: _347  and  _348
REMARK  149  A    between atoms: _354  and  _356
REMARK  150  A    between atoms: _356  and  _357
REMARK  151  A    between atoms: _356  and  _359
REMARK  152  A    between atoms: _359  and  _360
REMARK  153  A    between atoms: _360  and  _361
REMARK  154  A    between atoms: _364  and  _366
REMARK  155  A    between atoms: _366  and  _367
REMARK  156  A    between atoms: _366  and  _369
REMARK  157  A    between atoms: _369  and  _370
REMARK  158  A    between atoms: _373  and  _375
REMARK  159  A    between atoms: _375  and  _376
REMARK  160  A    between atoms: _375  and  _378
REMARK  161  A    between atoms: _378  and  _379
REMARK                            x       y       z     vdW  Elec       q    Type
REMARK                         _______ _______ _______ _____ _____    ______ ____
ROOT
ATOM      1  O   HOH     1       3.298  29.658   0.841  0.00  0.00    +0.000 OA
ENDROOT
TORSDOF 0
REMARK  Name = ../refined-set-2016/1hdq/1hdq_pocket.pdb
REMARK  161 active torsions:
REMARK  status: ('A' for Active; 'I' for Inactive)
REMARK    1  A    between atoms: _1  and  _3
REMARK    2  A    between atoms: _3  and  _4
REMARK    3  A    between atoms: _3  and  _6
REMARK    4  A    between atoms: _6  and  _7
REMARK    5  A    between atoms: _10  and  _12
REMARK    6  A    between atoms: _12  and  _13
REMARK    7  A    between atoms: _12  and  _15
REMARK    8  A    between atoms: _15  and  _16
REMARK    9  A    between atoms: _17  and  ZN_385
REMARK   10  A    between atoms: _21  and  _23
REMARK   11  A    between atoms: _23  and  _24
REMARK   12  A    between atoms: _23  and  _26
REMARK   13  A    between atoms: _26  and  _27
REMARK   14  A    between atoms: _27  and  _28
REMARK   15  A    between atoms: _28  and  _29
REMARK   16  A    between atoms: _38  and  _40
REMARK   17  A    between atoms: _40  and  _41
REMARK   18  A    between atoms: _40  and  _43
REMARK   19  A    between atoms: _43  and  _44
REMARK   20  A    between atoms: _44  and  _45
REMARK   21  A    between atoms: _48  and  _50
REMARK   22  A    between atoms: _50  and  _51
REMARK   23  A    between atoms: _50  and  _53
REMARK   24  A    between atoms: _53  and  _54
REMARK   25  A    between atoms: _57  and  _59
REMARK   26  A    between atoms: _59  and  _60
REMARK   27  A    between atoms: _59  and  _62
REMARK   28  A    between atoms: _62  and  _63
REMARK   29  A    between atoms: _63  and  _64
REMARK   30  A    between atoms: _64  and  _65
REMARK   31  A    between atoms: _74  and  _76
REMARK   32  A    between atoms: _76  and  _77
REMARK   33  A    between atoms: _76  and  _79
REMARK   34  A    between atoms: _79  and  _80
REMARK   35  A    between atoms: _83  and  _85
REMARK   36  A    between atoms: _85  and  _86
REMARK   37  A    between atoms: _85  and  _88
REMARK   38  A    between atoms: _88  and  _89
REMARK   39  A    between atoms: _94  and  _96
REMARK   40  A    between atoms: _96  and  _97
REMARK   41  A    between atoms: _96  and  _99
REMARK   42  A    between atoms: _99  and  _100
REMARK   43  A    between atoms: _100  and  _101
REMARK   44  A    between atoms: _101  and  _102
REMARK   45  A    between atoms: _111  and  _113
REMARK   46  A    between atoms: _113  and  _114
REMARK   47  A    between atoms: _116  and  _118
REMARK   48  A    between atoms: _118  and  _119
REMARK   49  A    between atoms: _118  and  _121
REMARK   50  A    between atoms: _121  and  _122
REMARK   51  A    between atoms: _122  and  _123
REMARK   52  A    between atoms: _126  and  _128
REMARK   53  A    between atoms: _128  and  _129
REMARK   54  A    between atoms: _128  and  _131
REMARK   55  A    between atoms: _131  and  _132
REMARK   56  A    between atoms: _135  and  _137
REMARK   57  A    between atoms: _137  and  _138
REMARK   58  A    between atoms: _137  and  _140
REMARK   59  A    between atoms: _140  and  _141
REMARK   60  A    between atoms: _143  and  _145
REMARK   61  A    between atoms: _145  and  _146
REMARK   62  A    between atoms: _145  and  _148
REMARK   63  A    between atoms: _148  and  _149
REMARK   64  A    between atoms: _152  and  _154
REMARK   65  A    between atoms: _154  and  _155
REMARK   66  A    between atoms: _154  and  _157
REMARK   67  A    between atoms: _157  and  _158
REMARK   68  A    between atoms: _159  and  ZN_385
REMARK   69  A    between atoms: _163  and  _165
REMARK   70  A    between atoms: _165  and  _166
REMARK   71  A    between atoms: _165  and  _168
REMARK   72  A    between atoms: _168  and  _169
REMARK   73  A    between atoms: _171  and  _173
REMARK   74  A    between atoms: _173  and  _174
REMARK   75  A    between atoms: _173  and  _176
REMARK   76  A    between atoms: _176  and  _177
REMARK   77  A    between atoms: _182  and  _183
REMARK   78  A    between atoms: _185  and  _187
REMARK   79  A    between atoms: _187  and  _188
REMARK   80  A    between atoms: _187  and  _190
REMARK   81  A    between atoms: _190  and  _191
REMARK   82  A    between atoms: _193  and  _195
REMARK   83  A    between atoms: _195  and  _196
REMARK   84  A    between atoms: _195  and  _198
REMARK   85  A    between atoms: _198  and  _199
REMARK   86  A    between atoms: _202  and  _204
REMARK   87  A    between atoms: _204  and  _205
REMARK   88  A    between atoms: _204  and  _207
REMARK   89  A    between atoms: _207  and  _208
REMARK   90  A    between atoms: _211  and  _213
REMARK   91  A    between atoms: _213  and  _214
REMARK   92  A    between atoms: _216  and  _218
REMARK   93  A    between atoms: _218  and  _219
REMARK   94  A    between atoms: _218  and  _221
REMARK   95  A    between atoms: _221  and  _222
REMARK   96  A    between atoms: _227  and  _228
REMARK   97  A    between atoms: _230  and  _232
REMARK   98  A    between atoms: _232  and  _233
REMARK   99  A    between atoms: _232  and  _235
REMARK  100  A    between atoms: _235  and  _236
REMARK  101  A    between atoms: _239  and  _241
REMARK  102  A    between atoms: _241  and  _242
REMARK  103  A    between atoms: _241  and  _244
REMARK  104  A    between atoms: _244  and  _245
REMARK  105  A    between atoms: _248  and  _250
REMARK  106  A    between atoms: _250  and  _251
REMARK  107  A    between atoms: _250  and  _253
REMARK  108  A    between atoms: _253  and  _254
REMARK  109  A    between atoms: _257  and  _259
REMARK  110  A    between atoms: _259  and  _260
REMARK  111  A    between atoms: _259  and  _262
REMARK  112  A    between atoms: _262  and  _263
REMARK  113  A    between atoms: _268  and  _269
REMARK  114  A    between atoms: _271  and  _273
REMARK  115  A    between atoms: _273  and  _274
REMARK  116  A    between atoms: _273  and  _276
REMARK  117  A    between atoms: _276  and  _277
REMARK  118  A    between atoms: _277  and  _278
REMARK  119  A    between atoms: _283  and  _285
REMARK  120  A    between atoms: _285  and  _286
REMARK  121  A    between atoms: _289  and  _291
REMARK  122  A    between atoms: _291  and  _292
REMARK  123  A    between atoms: _291  and  _294
REMARK  124  A    between atoms: _294  and  _295
REMARK  125  A    between atoms: _297  and  _299
REMARK  126  A    between atoms: _299  and  _300
REMARK  127  A    between atoms: _302  and  _304
REMARK  128  A    between atoms: _304  and  _305
REMARK  129  A    between atoms: _307  and  _309
REMARK  130  A    between atoms: _309  and  _310
REMARK  131  A    between atoms: _309  and  _312
REMARK  132  A    between atoms: _312  and  _313
REMARK  133  A    between atoms: _315  and  _317
REMARK  134  A    between atoms: _317  and  _318
REMARK  135  A    between atoms: _317  and  _320
REMARK  136  A    between atoms: _320  and  _321
REMARK  137  A    between atoms: _324  and  _326
REMARK  138  A    between atoms: _326  and  _327
REMARK  139  A    between atoms: _326  and  _329
REMARK  140  A    between atoms: _329  and  _330
REMARK  141  A    between atoms: _333  and  _335
REMARK  142  A    between atoms: _335  and  _336
REMARK  143  A    between atoms: _335  and  _338
REMARK  144  A    between atoms: _338  and  _339
REMARK  145  A    between atoms: _342  and  _344
REMARK  146  A    between atoms: _344  and  _345
REMARK  147  A    between atoms: _344  and  _347
REMARK  148  A    between atoms: _347  and  _348
REMARK  149  A    between atoms: _354  and  _356
REMARK  150  A    between atoms: _356  and  _357
REMARK  151  A    between atoms: _356  and  _359
REMARK  152  A    between atoms: _359  and  _360
REMARK  153  A    between atoms: _360  and  _361
REMARK  154  A    between atoms: _364  and  _366
REMARK  155  A    between atoms: _366  and  _367
REMARK  156  A    between atoms: _366  and  _369
REMARK  157  A    between atoms: _369  and  _370
REMARK  158  A    between atoms: _373  and  _375
REMARK  159  A    between atoms: _375  and  _376
REMARK  160  A    between atoms: _375  and  _378
REMARK  161  A    between atoms: _378  and  _379
REMARK                            x       y       z     vdW  Elec       q    Type
REMARK                         _______ _______ _______ _____ _____    ______ ____
ROOT
ATOM      1  O   HOH     1       8.085  33.847  -7.509  0.00  0.00    +0.000 OA
ENDROOT
TORSDOF 0
REMARK  Name = ../refined-set-2016/1hdq/1hdq_pocket.pdb
REMARK  161 active torsions:
REMARK  status: ('A' for Active; 'I' for Inactive)
REMARK    1  A    between atoms: _1  and  _3
REMARK    2  A    between atoms: _3  and  _4
REMARK    3  A    between atoms: _3  and  _6
REMARK    4  A    between atoms: _6  and  _7
REMARK    5  A    between atoms: _10  and  _12
REMARK    6  A    between atoms: _12  and  _13
REMARK    7  A    between atoms: _12  and  _15
REMARK    8  A    between atoms: _15  and  _16
REMARK    9  A    between atoms: _17  and  ZN_385
REMARK   10  A    between atoms: _21  and  _23
REMARK   11  A    between atoms: _23  and  _24
REMARK   12  A    between atoms: _23  and  _26
REMARK   13  A    between atoms: _26  and  _27
REMARK   14  A    between atoms: _27  and  _28
REMARK   15  A    between atoms: _28  and  _29
REMARK   16  A    between atoms: _38  and  _40
REMARK   17  A    between atoms: _40  and  _41
REMARK   18  A    between atoms: _40  and  _43
REMARK   19  A    between atoms: _43  and  _44
REMARK   20  A    between atoms: _44  and  _45
REMARK   21  A    between atoms: _48  and  _50
REMARK   22  A    between atoms: _50  and  _51
REMARK   23  A    between atoms: _50  and  _53
REMARK   24  A    between atoms: _53  and  _54
REMARK   25  A    between atoms: _57  and  _59
REMARK   26  A    between atoms: _59  and  _60
REMARK   27  A    between atoms: _59  and  _62
REMARK   28  A    between atoms: _62  and  _63
REMARK   29  A    between atoms: _63  and  _64
REMARK   30  A    between atoms: _64  and  _65
REMARK   31  A    between atoms: _74  and  _76
REMARK   32  A    between atoms: _76  and  _77
REMARK   33  A    between atoms: _76  and  _79
REMARK   34  A    between atoms: _79  and  _80
REMARK   35  A    between atoms: _83  and  _85
REMARK   36  A    between atoms: _85  and  _86
REMARK   37  A    between atoms: _85  and  _88
REMARK   38  A    between atoms: _88  and  _89
REMARK   39  A    between atoms: _94  and  _96
REMARK   40  A    between atoms: _96  and  _97
REMARK   41  A    between atoms: _96  and  _99
REMARK   42  A    between atoms: _99  and  _100
REMARK   43  A    between atoms: _100  and  _101
REMARK   44  A    between atoms: _101  and  _102
REMARK   45  A    between atoms: _111  and  _113
REMARK   46  A    between atoms: _113  and  _114
REMARK   47  A    between atoms: _116  and  _118
REMARK   48  A    between atoms: _118  and  _119
REMARK   49  A    between atoms: _118  and  _121
REMARK   50  A    between atoms: _121  and  _122
REMARK   51  A    between atoms: _122  and  _123
REMARK   52  A    between atoms: _126  and  _128
REMARK   53  A    between atoms: _128  and  _129
REMARK   54  A    between atoms: _128  and  _131
REMARK   55  A    between atoms: _131  and  _132
REMARK   56  A    between atoms: _135  and  _137
REMARK   57  A    between atoms: _137  and  _138
REMARK   58  A    between atoms: _137  and  _140
REMARK   59  A    between atoms: _140  and  _141
REMARK   60  A    between atoms: _143  and  _145
REMARK   61  A    between atoms: _145  and  _146
REMARK   62  A    between atoms: _145  and  _148
REMARK   63  A    between atoms: _148  and  _149
REMARK   64  A    between atoms: _152  and  _154
REMARK   65  A    between atoms: _154  and  _155
REMARK   66  A    between atoms: _154  and  _157
REMARK   67  A    between atoms: _157  and  _158
REMARK   68  A    between atoms: _159  and  ZN_385
REMARK   69  A    between atoms: _163  and  _165
REMARK   70  A    between atoms: _165  and  _166
REMARK   71  A    between atoms: _165  and  _168
REMARK   72  A    between atoms: _168  and  _169
REMARK   73  A    between atoms: _171  and  _173
REMARK   74  A    between atoms: _173  and  _174
REMARK   75  A    between atoms: _173  and  _176
REMARK   76  A    between atoms: _176  and  _177
REMARK   77  A    between atoms: _182  and  _183
REMARK   78  A    between atoms: _185  and  _187
REMARK   79  A    between atoms: _187  and  _188
REMARK   80  A    between atoms: _187  and  _190
REMARK   81  A    between atoms: _190  and  _191
REMARK   82  A    between atoms: _193  and  _195
REMARK   83  A    between atoms: _195  and  _196
REMARK   84  A    between atoms: _195  and  _198
REMARK   85  A    between atoms: _198  and  _199
REMARK   86  A    between atoms: _202  and  _204
REMARK   87  A    between atoms: _204  and  _205
REMARK   88  A    between atoms: _204  and  _207
REMARK   89  A    between atoms: _207  and  _208
REMARK   90  A    between atoms: _211  and  _213
REMARK   91  A    between atoms: _213  and  _214
REMARK   92  A    between atoms: _216  and  _218
REMARK   93  A    between atoms: _218  and  _219
REMARK   94  A    between atoms: _218  and  _221
REMARK   95  A    between atoms: _221  and  _222
REMARK   96  A    between atoms: _227  and  _228
REMARK   97  A    between atoms: _230  and  _232
REMARK   98  A    between atoms: _232  and  _233
REMARK   99  A    between atoms: _232  and  _235
REMARK  100  A    between atoms: _235  and  _236
REMARK  101  A    between atoms: _239  and  _241
REMARK  102  A    between atoms: _241  and  _242
REMARK  103  A    between atoms: _241  and  _244
REMARK  104  A    between atoms: _244  and  _245
REMARK  105  A    between atoms: _248  and  _250
REMARK  106  A    between atoms: _250  and  _251
REMARK  107  A    between atoms: _250  and  _253
REMARK  108  A    between atoms: _253  and  _254
REMARK  109  A    between atoms: _257  and  _259
REMARK  110  A    between atoms: _259  and  _260
REMARK  111  A    between atoms: _259  and  _262
REMARK  112  A    between atoms: _262  and  _263
REMARK  113  A    between atoms: _268  and  _269
REMARK  114  A    between atoms: _271  and  _273
REMARK  115  A    between atoms: _273  and  _274
REMARK  116  A    between atoms: _273  and  _276
REMARK  117  A    between atoms: _276  and  _277
REMARK  118  A    between atoms: _277  and  _278
REMARK  119  A    between atoms: _283  and  _285
REMARK  120  A    between atoms: _285  and  _286
REMARK  121  A    between atoms: _289  and  _291
REMARK  122  A    between atoms: _291  and  _292
REMARK  123  A    between atoms: _291  and  _294
REMARK  124  A    between atoms: _294  and  _295
REMARK  125  A    between atoms: _297  and  _299
REMARK  126  A    between atoms: _299  and  _300
REMARK  127  A    between atoms: _302  and  _304
REMARK  128  A    between atoms: _304  and  _305
REMARK  129  A    between atoms: _307  and  _309
REMARK  130  A    between atoms: _309  and  _310
REMARK  131  A    between atoms: _309  and  _312
REMARK  132  A    between atoms: _312  and  _313
REMARK  133  A    between atoms: _315  and  _317
REMARK  134  A    between atoms: _317  and  _318
REMARK  135  A    between atoms: _317  and  _320
REMARK  136  A    between atoms: _320  and  _321
REMARK  137  A    between atoms: _324  and  _326
REMARK  138  A    between atoms: _326  and  _327
REMARK  139  A    between atoms: _326  and  _329
REMARK  140  A    between atoms: _329  and  _330
REMARK  141  A    between atoms: _333  and  _335
REMARK  142  A    between atoms: _335  and  _336
REMARK  143  A    between atoms: _335  and  _338
REMARK  144  A    between atoms: _338  and  _339
REMARK  145  A    between atoms: _342  and  _344
REMARK  146  A    between atoms: _344  and  _345
REMARK  147  A    between atoms: _344  and  _347
REMARK  148  A    between atoms: _347  and  _348
REMARK  149  A    between atoms: _354  and  _356
REMARK  150  A    between atoms: _356  and  _357
REMARK  151  A    between atoms: _356  and  _359
REMARK  152  A    between atoms: _359  and  _360
REMARK  153  A    between atoms: _360  and  _361
REMARK  154  A    between atoms: _364  and  _366
REMARK  155  A    between atoms: _366  and  _367
REMARK  156  A    between atoms: _366  and  _369
REMARK  157  A    between atoms: _369  and  _370
REMARK  158  A    between atoms: _373  and  _375
REMARK  159  A    between atoms: _375  and  _376
REMARK  160  A    between atoms: _375  and  _378
REMARK  161  A    between atoms: _378  and  _379
REMARK                            x       y       z     vdW  Elec       q    Type
REMARK                         _______ _______ _______ _____ _____    ______ ____
ROOT
ATOM      1  O   HOH     1       7.458  32.207  -3.515  0.00  0.00    +0.000 OA
ENDROOT
TORSDOF 0
REMARK  Name = ../refined-set-2016/1hdq/1hdq_pocket.pdb
REMARK  161 active torsions:
REMARK  status: ('A' for Active; 'I' for Inactive)
REMARK    1  A    between atoms: _1  and  _3
REMARK    2  A    between atoms: _3  and  _4
REMARK    3  A    between atoms: _3  and  _6
REMARK    4  A    between atoms: _6  and  _7
REMARK    5  A    between atoms: _10  and  _12
REMARK    6  A    between atoms: _12  and  _13
REMARK    7  A    between atoms: _12  and  _15
REMARK    8  A    between atoms: _15  and  _16
REMARK    9  A    between atoms: _17  and  ZN_385
REMARK   10  A    between atoms: _21  and  _23
REMARK   11  A    between atoms: _23  and  _24
REMARK   12  A    between atoms: _23  and  _26
REMARK   13  A    between atoms: _26  and  _27
REMARK   14  A    between atoms: _27  and  _28
REMARK   15  A    between atoms: _28  and  _29
REMARK   16  A    between atoms: _38  and  _40
REMARK   17  A    between atoms: _40  and  _41
REMARK   18  A    between atoms: _40  and  _43
REMARK   19  A    between atoms: _43  and  _44
REMARK   20  A    between atoms: _44  and  _45
REMARK   21  A    between atoms: _48  and  _50
REMARK   22  A    between atoms: _50  and  _51
REMARK   23  A    between atoms: _50  and  _53
REMARK   24  A    between atoms: _53  and  _54
REMARK   25  A    between atoms: _57  and  _59
REMARK   26  A    between atoms: _59  and  _60
REMARK   27  A    between atoms: _59  and  _62
REMARK   28  A    between atoms: _62  and  _63
REMARK   29  A    between atoms: _63  and  _64
REMARK   30  A    between atoms: _64  and  _65
REMARK   31  A    between atoms: _74  and  _76
REMARK   32  A    between atoms: _76  and  _77
REMARK   33  A    between atoms: _76  and  _79
REMARK   34  A    between atoms: _79  and  _80
REMARK   35  A    between atoms: _83  and  _85
REMARK   36  A    between atoms: _85  and  _86
REMARK   37  A    between atoms: _85  and  _88
REMARK   38  A    between atoms: _88  and  _89
REMARK   39  A    between atoms: _94  and  _96
REMARK   40  A    between atoms: _96  and  _97
REMARK   41  A    between atoms: _96  and  _99
REMARK   42  A    between atoms: _99  and  _100
REMARK   43  A    between atoms: _100  and  _101
REMARK   44  A    between atoms: _101  and  _102
REMARK   45  A    between atoms: _111  and  _113
REMARK   46  A    between atoms: _113  and  _114
REMARK   47  A    between atoms: _116  and  _118
REMARK   48  A    between atoms: _118  and  _119
REMARK   49  A    between atoms: _118  and  _121
REMARK   50  A    between atoms: _121  and  _122
REMARK   51  A    between atoms: _122  and  _123
REMARK   52  A    between atoms: _126  and  _128
REMARK   53  A    between atoms: _128  and  _129
REMARK   54  A    between atoms: _128  and  _131
REMARK   55  A    between atoms: _131  and  _132
REMARK   56  A    between atoms: _135  and  _137
REMARK   57  A    between atoms: _137  and  _138
REMARK   58  A    between atoms: _137  and  _140
REMARK   59  A    between atoms: _140  and  _141
REMARK   60  A    between atoms: _143  and  _145
REMARK   61  A    between atoms: _145  and  _146
REMARK   62  A    between atoms: _145  and  _148
REMARK   63  A    between atoms: _148  and  _149
REMARK   64  A    between atoms: _152  and  _154
REMARK   65  A    between atoms: _154  and  _155
REMARK   66  A    between atoms: _154  and  _157
REMARK   67  A    between atoms: _157  and  _158
REMARK   68  A    between atoms: _159  and  ZN_385
REMARK   69  A    between atoms: _163  and  _165
REMARK   70  A    between atoms: _165  and  _166
REMARK   71  A    between atoms: _165  and  _168
REMARK   72  A    between atoms: _168  and  _169
REMARK   73  A    between atoms: _171  and  _173
REMARK   74  A    between atoms: _173  and  _174
REMARK   75  A    between atoms: _173  and  _176
REMARK   76  A    between atoms: _176  and  _177
REMARK   77  A    between atoms: _182  and  _183
REMARK   78  A    between atoms: _185  and  _187
REMARK   79  A    between atoms: _187  and  _188
REMARK   80  A    between atoms: _187  and  _190
REMARK   81  A    between atoms: _190  and  _191
REMARK   82  A    between atoms: _193  and  _195
REMARK   83  A    between atoms: _195  and  _196
REMARK   84  A    between atoms: _195  and  _198
REMARK   85  A    between atoms: _198  and  _199
REMARK   86  A    between atoms: _202  and  _204
REMARK   87  A    between atoms: _204  and  _205
REMARK   88  A    between atoms: _204  and  _207
REMARK   89  A    between atoms: _207  and  _208
REMARK   90  A    between atoms: _211  and  _213
REMARK   91  A    between atoms: _213  and  _214
REMARK   92  A    between atoms: _216  and  _218
REMARK   93  A    between atoms: _218  and  _219
REMARK   94  A    between atoms: _218  and  _221
REMARK   95  A    between atoms: _221  and  _222
REMARK   96  A    between atoms: _227  and  _228
REMARK   97  A    between atoms: _230  and  _232
REMARK   98  A    between atoms: _232  and  _233
REMARK   99  A    between atoms: _232  and  _235
REMARK  100  A    between atoms: _235  and  _236
REMARK  101  A    between atoms: _239  and  _241
REMARK  102  A    between atoms: _241  and  _242
REMARK  103  A    between atoms: _241  and  _244
REMARK  104  A    between atoms: _244  and  _245
REMARK  105  A    between atoms: _248  and  _250
REMARK  106  A    between atoms: _250  and  _251
REMARK  107  A    between atoms: _250  and  _253
REMARK  108  A    between atoms: _253  and  _254
REMARK  109  A    between atoms: _257  and  _259
REMARK  110  A    between atoms: _259  and  _260
REMARK  111  A    between atoms: _259  and  _262
REMARK  112  A    between atoms: _262  and  _263
REMARK  113  A    between atoms: _268  and  _269
REMARK  114  A    between atoms: _271  and  _273
REMARK  115  A    between atoms: _273  and  _274
REMARK  116  A    between atoms: _273  and  _276
REMARK  117  A    between atoms: _276  and  _277
REMARK  118  A    between atoms: _277  and  _278
REMARK  119  A    between atoms: _283  and  _285
REMARK  120  A    between atoms: _285  and  _286
REMARK  121  A    between atoms: _289  and  _291
REMARK  122  A    between atoms: _291  and  _292
REMARK  123  A    between atoms: _291  and  _294
REMARK  124  A    between atoms: _294  and  _295
REMARK  125  A    between atoms: _297  and  _299
REMARK  126  A    between atoms: _299  and  _300
REMARK  127  A    between atoms: _302  and  _304
REMARK  128  A    between atoms: _304  and  _305
REMARK  129  A    between atoms: _307  and  _309
REMARK  130  A    between atoms: _309  and  _310
REMARK  131  A    between atoms: _309  and  _312
REMARK  132  A    between atoms: _312  and  _313
REMARK  133  A    between atoms: _315  and  _317
REMARK  134  A    between atoms: _317  and  _318
REMARK  135  A    between atoms: _317  and  _320
REMARK  136  A    between atoms: _320  and  _321
REMARK  137  A    between atoms: _324  and  _326
REMARK  138  A    between atoms: _326  and  _327
REMARK  139  A    between atoms: _326  and  _329
REMARK  140  A    between atoms: _329  and  _330
REMARK  141  A    between atoms: _333  and  _335
REMARK  142  A    between atoms: _335  and  _336
REMARK  143  A    between atoms: _335  and  _338
REMARK  144  A    between atoms: _338  and  _339
REMARK  145  A    between atoms: _342  and  _344
REMARK  146  A    between atoms: _344  and  _345
REMARK  147  A    between atoms: _344  and  _347
REMARK  148  A    between atoms: _347  and  _348
REMARK  149  A    between atoms: _354  and  _356
REMARK  150  A    between atoms: _356  and  _357
REMARK  151  A    between atoms: _356  and  _359
REMARK  152  A    between atoms: _359  and  _360
REMARK  153  A    between atoms: _360  and  _361
REMARK  154  A    between atoms: _364  and  _366
REMARK  155  A    between atoms: _366  and  _367
REMARK  156  A    between atoms: _366  and  _369
REMARK  157  A    between atoms: _369  and  _370
REMARK  158  A    between atoms: _373  and  _375
REMARK  159  A    between atoms: _375  and  _376
REMARK  160  A    between atoms: _375  and  _378
REMARK  161  A    between atoms: _378  and  _379
REMARK                            x       y       z     vdW  Elec       q    Type
REMARK                         _______ _______ _______ _____ _____    ______ ____
ROOT
ATOM      1  O   HOH     1       0.181  30.403 -14.268  0.00  0.00    +0.000 OA
ENDROOT
TORSDOF 0
REMARK  Name = ../refined-set-2016/1hdq/1hdq_pocket.pdb
REMARK  161 active torsions:
REMARK  status: ('A' for Active; 'I' for Inactive)
REMARK    1  A    between atoms: _1  and  _3
REMARK    2  A    between atoms: _3  and  _4
REMARK    3  A    between atoms: _3  and  _6
REMARK    4  A    between atoms: _6  and  _7
REMARK    5  A    between atoms: _10  and  _12
REMARK    6  A    between atoms: _12  and  _13
REMARK    7  A    between atoms: _12  and  _15
REMARK    8  A    between atoms: _15  and  _16
REMARK    9  A    between atoms: _17  and  ZN_385
REMARK   10  A    between atoms: _21  and  _23
REMARK   11  A    between atoms: _23  and  _24
REMARK   12  A    between atoms: _23  and  _26
REMARK   13  A    between atoms: _26  and  _27
REMARK   14  A    between atoms: _27  and  _28
REMARK   15  A    between atoms: _28  and  _29
REMARK   16  A    between atoms: _38  and  _40
REMARK   17  A    between atoms: _40  and  _41
REMARK   18  A    between atoms: _40  and  _43
REMARK   19  A    between atoms: _43  and  _44
REMARK   20  A    between atoms: _44  and  _45
REMARK   21  A    between atoms: _48  and  _50
REMARK   22  A    between atoms: _50  and  _51
REMARK   23  A    between atoms: _50  and  _53
REMARK   24  A    between atoms: _53  and  _54
REMARK   25  A    between atoms: _57  and  _59
REMARK   26  A    between atoms: _59  and  _60
REMARK   27  A    between atoms: _59  and  _62
REMARK   28  A    between atoms: _62  and  _63
REMARK   29  A    between atoms: _63  and  _64
REMARK   30  A    between atoms: _64  and  _65
REMARK   31  A    between atoms: _74  and  _76
REMARK   32  A    between atoms: _76  and  _77
REMARK   33  A    between atoms: _76  and  _79
REMARK   34  A    between atoms: _79  and  _80
REMARK   35  A    between atoms: _83  and  _85
REMARK   36  A    between atoms: _85  and  _86
REMARK   37  A    between atoms: _85  and  _88
REMARK   38  A    between atoms: _88  and  _89
REMARK   39  A    between atoms: _94  and  _96
REMARK   40  A    between atoms: _96  and  _97
REMARK   41  A    between atoms: _96  and  _99
REMARK   42  A    between atoms: _99  and  _100
REMARK   43  A    between atoms: _100  and  _101
REMARK   44  A    between atoms: _101  and  _102
REMARK   45  A    between atoms: _111  and  _113
REMARK   46  A    between atoms: _113  and  _114
REMARK   47  A    between atoms: _116  and  _118
REMARK   48  A    between atoms: _118  and  _119
REMARK   49  A    between atoms: _118  and  _121
REMARK   50  A    between atoms: _121  and  _122
REMARK   51  A    between atoms: _122  and  _123
REMARK   52  A    between atoms: _126  and  _128
REMARK   53  A    between atoms: _128  and  _129
REMARK   54  A    between atoms: _128  and  _131
REMARK   55  A    between atoms: _131  and  _132
REMARK   56  A    between atoms: _135  and  _137
REMARK   57  A    between atoms: _137  and  _138
REMARK   58  A    between atoms: _137  and  _140
REMARK   59  A    between atoms: _140  and  _141
REMARK   60  A    between atoms: _143  and  _145
REMARK   61  A    between atoms: _145  and  _146
REMARK   62  A    between atoms: _145  and  _148
REMARK   63  A    between atoms: _148  and  _149
REMARK   64  A    between atoms: _152  and  _154
REMARK   65  A    between atoms: _154  and  _155
REMARK   66  A    between atoms: _154  and  _157
REMARK   67  A    between atoms: _157  and  _158
REMARK   68  A    between atoms: _159  and  ZN_385
REMARK   69  A    between atoms: _163  and  _165
REMARK   70  A    between atoms: _165  and  _166
REMARK   71  A    between atoms: _165  and  _168
REMARK   72  A    between atoms: _168  and  _169
REMARK   73  A    between atoms: _171  and  _173
REMARK   74  A    between atoms: _173  and  _174
REMARK   75  A    between atoms: _173  and  _176
REMARK   76  A    between atoms: _176  and  _177
REMARK   77  A    between atoms: _182  and  _183
REMARK   78  A    between atoms: _185  and  _187
REMARK   79  A    between atoms: _187  and  _188
REMARK   80  A    between atoms: _187  and  _190
REMARK   81  A    between atoms: _190  and  _191
REMARK   82  A    between atoms: _193  and  _195
REMARK   83  A    between atoms: _195  and  _196
REMARK   84  A    between atoms: _195  and  _198
REMARK   85  A    between atoms: _198  and  _199
REMARK   86  A    between atoms: _202  and  _204
REMARK   87  A    between atoms: _204  and  _205
REMARK   88  A    between atoms: _204  and  _207
REMARK   89  A    between atoms: _207  and  _208
REMARK   90  A    between atoms: _211  and  _213
REMARK   91  A    between atoms: _213  and  _214
REMARK   92  A    between atoms: _216  and  _218
REMARK   93  A    between atoms: _218  and  _219
REMARK   94  A    between atoms: _218  and  _221
REMARK   95  A    between atoms: _221  and  _222
REMARK   96  A    between atoms: _227  and  _228
REMARK   97  A    between atoms: _230  and  _232
REMARK   98  A    between atoms: _232  and  _233
REMARK   99  A    between atoms: _232  and  _235
REMARK  100  A    between atoms: _235  and  _236
REMARK  101  A    between atoms: _239  and  _241
REMARK  102  A    between atoms: _241  and  _242
REMARK  103  A    between atoms: _241  and  _244
REMARK  104  A    between atoms: _244  and  _245
REMARK  105  A    between atoms: _248  and  _250
REMARK  106  A    between atoms: _250  and  _251
REMARK  107  A    between atoms: _250  and  _253
REMARK  108  A    between atoms: _253  and  _254
REMARK  109  A    between atoms: _257  and  _259
REMARK  110  A    between atoms: _259  and  _260
REMARK  111  A    between atoms: _259  and  _262
REMARK  112  A    between atoms: _262  and  _263
REMARK  113  A    between atoms: _268  and  _269
REMARK  114  A    between atoms: _271  and  _273
REMARK  115  A    between atoms: _273  and  _274
REMARK  116  A    between atoms: _273  and  _276
REMARK  117  A    between atoms: _276  and  _277
REMARK  118  A    between atoms: _277  and  _278
REMARK  119  A    between atoms: _283  and  _285
REMARK  120  A    between atoms: _285  and  _286
REMARK  121  A    between atoms: _289  and  _291
REMARK  122  A    between atoms: _291  and  _292
REMARK  123  A    between atoms: _291  and  _294
REMARK  124  A    between atoms: _294  and  _295
REMARK  125  A    between atoms: _297  and  _299
REMARK  126  A    between atoms: _299  and  _300
REMARK  127  A    between atoms: _302  and  _304
REMARK  128  A    between atoms: _304  and  _305
REMARK  129  A    between atoms: _307  and  _309
REMARK  130  A    between atoms: _309  and  _310
REMARK  131  A    between atoms: _309  and  _312
REMARK  132  A    between atoms: _312  and  _313
REMARK  133  A    between atoms: _315  and  _317
REMARK  134  A    between atoms: _317  and  _318
REMARK  135  A    between atoms: _317  and  _320
REMARK  136  A    between atoms: _320  and  _321
REMARK  137  A    between atoms: _324  and  _326
REMARK  138  A    between atoms: _326  and  _327
REMARK  139  A    between atoms: _326  and  _329
REMARK  140  A    between atoms: _329  and  _330
REMARK  141  A    between atoms: _333  and  _335
REMARK  142  A    between atoms: _335  and  _336
REMARK  143  A    between atoms: _335  and  _338
REMARK  144  A    between atoms: _338  and  _339
REMARK  145  A    between atoms: _342  and  _344
REMARK  146  A    between atoms: _344  and  _345
REMARK  147  A    between atoms: _344  and  _347
REMARK  148  A    between atoms: _347  and  _348
REMARK  149  A    between atoms: _354  and  _356
REMARK  150  A    between atoms: _356  and  _357
REMARK  151  A    between atoms: _356  and  _359
REMARK  152  A    between atoms: _359  and  _360
REMARK  153  A    between atoms: _360  and  _361
REMARK  154  A    between atoms: _364  and  _366
REMARK  155  A    between atoms: _366  and  _367
REMARK  156  A    between atoms: _366  and  _369
REMARK  157  A    between atoms: _369  and  _370
REMARK  158  A    between atoms: _373  and  _375
REMARK  159  A    between atoms: _375  and  _376
REMARK  160  A    between atoms: _375  and  _378
REMARK  161  A    between atoms: _378  and  _379
REMARK                            x       y       z     vdW  Elec       q    Type
REMARK                         _______ _______ _______ _____ _____    ______ ____
ROOT
ATOM      1  O   HOH     1      -1.422  28.680 -15.697  0.00  0.00    +0.000 OA
ENDROOT
TORSDOF 0
REMARK  Name = ../refined-set-2016/1hdq/1hdq_pocket.pdb
REMARK  161 active torsions:
REMARK  status: ('A' for Active; 'I' for Inactive)
REMARK    1  A    between atoms: _1  and  _3
REMARK    2  A    between atoms: _3  and  _4
REMARK    3  A    between atoms: _3  and  _6
REMARK    4  A    between atoms: _6  and  _7
REMARK    5  A    between atoms: _10  and  _12
REMARK    6  A    between atoms: _12  and  _13
REMARK    7  A    between atoms: _12  and  _15
REMARK    8  A    between atoms: _15  and  _16
REMARK    9  A    between atoms: _17  and  ZN_385
REMARK   10  A    between atoms: _21  and  _23
REMARK   11  A    between atoms: _23  and  _24
REMARK   12  A    between atoms: _23  and  _26
REMARK   13  A    between atoms: _26  and  _27
REMARK   14  A    between atoms: _27  and  _28
REMARK   15  A    between atoms: _28  and  _29
REMARK   16  A    between atoms: _38  and  _40
REMARK   17  A    between atoms: _40  and  _41
REMARK   18  A    between atoms: _40  and  _43
REMARK   19  A    between atoms: _43  and  _44
REMARK   20  A    between atoms: _44  and  _45
REMARK   21  A    between atoms: _48  and  _50
REMARK   22  A    between atoms: _50  and  _51
REMARK   23  A    between atoms: _50  and  _53
REMARK   24  A    between atoms: _53  and  _54
REMARK   25  A    between atoms: _57  and  _59
REMARK   26  A    between atoms: _59  and  _60
REMARK   27  A    between atoms: _59  and  _62
REMARK   28  A    between atoms: _62  and  _63
REMARK   29  A    between atoms: _63  and  _64
REMARK   30  A    between atoms: _64  and  _65
REMARK   31  A    between atoms: _74  and  _76
REMARK   32  A    between atoms: _76  and  _77
REMARK   33  A    between atoms: _76  and  _79
REMARK   34  A    between atoms: _79  and  _80
REMARK   35  A    between atoms: _83  and  _85
REMARK   36  A    between atoms: _85  and  _86
REMARK   37  A    between atoms: _85  and  _88
REMARK   38  A    between atoms: _88  and  _89
REMARK   39  A    between atoms: _94  and  _96
REMARK   40  A    between atoms: _96  and  _97
REMARK   41  A    between atoms: _96  and  _99
REMARK   42  A    between atoms: _99  and  _100
REMARK   43  A    between atoms: _100  and  _101
REMARK   44  A    between atoms: _101  and  _102
REMARK   45  A    between atoms: _111  and  _113
REMARK   46  A    between atoms: _113  and  _114
REMARK   47  A    between atoms: _116  and  _118
REMARK   48  A    between atoms: _118  and  _119
REMARK   49  A    between atoms: _118  and  _121
REMARK   50  A    between atoms: _121  and  _122
REMARK   51  A    between atoms: _122  and  _123
REMARK   52  A    between atoms: _126  and  _128
REMARK   53  A    between atoms: _128  and  _129
REMARK   54  A    between atoms: _128  and  _131
REMARK   55  A    between atoms: _131  and  _132
REMARK   56  A    between atoms: _135  and  _137
REMARK   57  A    between atoms: _137  and  _138
REMARK   58  A    between atoms: _137  and  _140
REMARK   59  A    between atoms: _140  and  _141
REMARK   60  A    between atoms: _143  and  _145
REMARK   61  A    between atoms: _145  and  _146
REMARK   62  A    between atoms: _145  and  _148
REMARK   63  A    between atoms: _148  and  _149
REMARK   64  A    between atoms: _152  and  _154
REMARK   65  A    between atoms: _154  and  _155
REMARK   66  A    between atoms: _154  and  _157
REMARK   67  A    between atoms: _157  and  _158
REMARK   68  A    between atoms: _159  and  ZN_385
REMARK   69  A    between atoms: _163  and  _165
REMARK   70  A    between atoms: _165  and  _166
REMARK   71  A    between atoms: _165  and  _168
REMARK   72  A    between atoms: _168  and  _169
REMARK   73  A    between atoms: _171  and  _173
REMARK   74  A    between atoms: _173  and  _174
REMARK   75  A    between atoms: _173  and  _176
REMARK   76  A    between atoms: _176  and  _177
REMARK   77  A    between atoms: _182  and  _183
REMARK   78  A    between atoms: _185  and  _187
REMARK   79  A    between atoms: _187  and  _188
REMARK   80  A    between atoms: _187  and  _190
REMARK   81  A    between atoms: _190  and  _191
REMARK   82  A    between atoms: _193  and  _195
REMARK   83  A    between atoms: _195  and  _196
REMARK   84  A    between atoms: _195  and  _198
REMARK   85  A    between atoms: _198  and  _199
REMARK   86  A    between atoms: _202  and  _204
REMARK   87  A    between atoms: _204  and  _205
REMARK   88  A    between atoms: _204  and  _207
REMARK   89  A    between atoms: _207  and  _208
REMARK   90  A    between atoms: _211  and  _213
REMARK   91  A    between atoms: _213  and  _214
REMARK   92  A    between atoms: _216  and  _218
REMARK   93  A    between atoms: _218  and  _219
REMARK   94  A    between atoms: _218  and  _221
REMARK   95  A    between atoms: _221  and  _222
REMARK   96  A    between atoms: _227  and  _228
REMARK   97  A    between atoms: _230  and  _232
REMARK   98  A    between atoms: _232  and  _233
REMARK   99  A    between atoms: _232  and  _235
REMARK  100  A    between atoms: _235  and  _236
REMARK  101  A    between atoms: _239  and  _241
REMARK  102  A    between atoms: _241  and  _242
REMARK  103  A    between atoms: _241  and  _244
REMARK  104  A    between atoms: _244  and  _245
REMARK  105  A    between atoms: _248  and  _250
REMARK  106  A    between atoms: _250  and  _251
REMARK  107  A    between atoms: _250  and  _253
REMARK  108  A    between atoms: _253  and  _254
REMARK  109  A    between atoms: _257  and  _259
REMARK  110  A    between atoms: _259  and  _260
REMARK  111  A    between atoms: _259  and  _262
REMARK  112  A    between atoms: _262  and  _263
REMARK  113  A    between atoms: _268  and  _269
REMARK  114  A    between atoms: _271  and  _273
REMARK  115  A    between atoms: _273  and  _274
REMARK  116  A    between atoms: _273  and  _276
REMARK  117  A    between atoms: _276  and  _277
REMARK  118  A    between atoms: _277  and  _278
REMARK  119  A    between atoms: _283  and  _285
REMARK  120  A    between atoms: _285  and  _286
REMARK  121  A    between atoms: _289  and  _291
REMARK  122  A    between atoms: _291  and  _292
REMARK  123  A    between atoms: _291  and  _294
REMARK  124  A    between atoms: _294  and  _295
REMARK  125  A    between atoms: _297  and  _299
REMARK  126  A    between atoms: _299  and  _300
REMARK  127  A    between atoms: _302  and  _304
REMARK  128  A    between atoms: _304  and  _305
REMARK  129  A    between atoms: _307  and  _309
REMARK  130  A    between atoms: _309  and  _310
REMARK  131  A    between atoms: _309  and  _312
REMARK  132  A    between atoms: _312  and  _313
REMARK  133  A    between atoms: _315  and  _317
REMARK  134  A    between atoms: _317  and  _318
REMARK  135  A    between atoms: _317  and  _320
REMARK  136  A    between atoms: _320  and  _321
REMARK  137  A    between atoms: _324  and  _326
REMARK  138  A    between atoms: _326  and  _327
REMARK  139  A    between atoms: _326  and  _329
REMARK  140  A    between atoms: _329  and  _330
REMARK  141  A    between atoms: _333  and  _335
REMARK  142  A    between atoms: _335  and  _336
REMARK  143  A    between atoms: _335  and  _338
REMARK  144  A    between atoms: _338  and  _339
REMARK  145  A    between atoms: _342  and  _344
REMARK  146  A    between atoms: _344  and  _345
REMARK  147  A    between atoms: _344  and  _347
REMARK  148  A    between atoms: _347  and  _348
REMARK  149  A    between atoms: _354  and  _356
REMARK  150  A    between atoms: _356  and  _357
REMARK  151  A    between atoms: _356  and  _359
REMARK  152  A    between atoms: _359  and  _360
REMARK  153  A    between atoms: _360  and  _361
REMARK  154  A    between atoms: _364  and  _366
REMARK  155  A    between atoms: _366  and  _367
REMARK  156  A    between atoms: _366  and  _369
REMARK  157  A    between atoms: _369  and  _370
REMARK  158  A    between atoms: _373  and  _375
REMARK  159  A    between atoms: _375  and  _376
REMARK  160  A    between atoms: _375  and  _378
REMARK  161  A    between atoms: _378  and  _379
REMARK                            x       y       z     vdW  Elec       q    Type
REMARK                         _______ _______ _______ _____ _____    ______ ____
ROOT
ATOM      1  O   HOH     1       2.199  30.187 -16.877  0.00  0.00    +0.000 OA
ENDROOT
TORSDOF 0
REMARK  Name = ../refined-set-2016/1hdq/1hdq_pocket.pdb
REMARK  161 active torsions:
REMARK  status: ('A' for Active; 'I' for Inactive)
REMARK    1  A    between atoms: _1  and  _3
REMARK    2  A    between atoms: _3  and  _4
REMARK    3  A    between atoms: _3  and  _6
REMARK    4  A    between atoms: _6  and  _7
REMARK    5  A    between atoms: _10  and  _12
REMARK    6  A    between atoms: _12  and  _13
REMARK    7  A    between atoms: _12  and  _15
REMARK    8  A    between atoms: _15  and  _16
REMARK    9  A    between atoms: _17  and  ZN_385
REMARK   10  A    between atoms: _21  and  _23
REMARK   11  A    between atoms: _23  and  _24
REMARK   12  A    between atoms: _23  and  _26
REMARK   13  A    between atoms: _26  and  _27
REMARK   14  A    between atoms: _27  and  _28
REMARK   15  A    between atoms: _28  and  _29
REMARK   16  A    between atoms: _38  and  _40
REMARK   17  A    between atoms: _40  and  _41
REMARK   18  A    between atoms: _40  and  _43
REMARK   19  A    between atoms: _43  and  _44
REMARK   20  A    between atoms: _44  and  _45
REMARK   21  A    between atoms: _48  and  _50
REMARK   22  A    between atoms: _50  and  _51
REMARK   23  A    between atoms: _50  and  _53
REMARK   24  A    between atoms: _53  and  _54
REMARK   25  A    between atoms: _57  and  _59
REMARK   26  A    between atoms: _59  and  _60
REMARK   27  A    between atoms: _59  and  _62
REMARK   28  A    between atoms: _62  and  _63
REMARK   29  A    between atoms: _63  and  _64
REMARK   30  A    between atoms: _64  and  _65
REMARK   31  A    between atoms: _74  and  _76
REMARK   32  A    between atoms: _76  and  _77
REMARK   33  A    between atoms: _76  and  _79
REMARK   34  A    between atoms: _79  and  _80
REMARK   35  A    between atoms: _83  and  _85
REMARK   36  A    between atoms: _85  and  _86
REMARK   37  A    between atoms: _85  and  _88
REMARK   38  A    between atoms: _88  and  _89
REMARK   39  A    between atoms: _94  and  _96
REMARK   40  A    between atoms: _96  and  _97
REMARK   41  A    between atoms: _96  and  _99
REMARK   42  A    between atoms: _99  and  _100
REMARK   43  A    between atoms: _100  and  _101
REMARK   44  A    between atoms: _101  and  _102
REMARK   45  A    between atoms: _111  and  _113
REMARK   46  A    between atoms: _113  and  _114
REMARK   47  A    between atoms: _116  and  _118
REMARK   48  A    between atoms: _118  and  _119
REMARK   49  A    between atoms: _118  and  _121
REMARK   50  A    between atoms: _121  and  _122
REMARK   51  A    between atoms: _122  and  _123
REMARK   52  A    between atoms: _126  and  _128
REMARK   53  A    between atoms: _128  and  _129
REMARK   54  A    between atoms: _128  and  _131
REMARK   55  A    between atoms: _131  and  _132
REMARK   56  A    between atoms: _135  and  _137
REMARK   57  A    between atoms: _137  and  _138
REMARK   58  A    between atoms: _137  and  _140
REMARK   59  A    between atoms: _140  and  _141
REMARK   60  A    between atoms: _143  and  _145
REMARK   61  A    between atoms: _145  and  _146
REMARK   62  A    between atoms: _145  and  _148
REMARK   63  A    between atoms: _148  and  _149
REMARK   64  A    between atoms: _152  and  _154
REMARK   65  A    between atoms: _154  and  _155
REMARK   66  A    between atoms: _154  and  _157
REMARK   67  A    between atoms: _157  and  _158
REMARK   68  A    between atoms: _159  and  ZN_385
REMARK   69  A    between atoms: _163  and  _165
REMARK   70  A    between atoms: _165  and  _166
REMARK   71  A    between atoms: _165  and  _168
REMARK   72  A    between atoms: _168  and  _169
REMARK   73  A    between atoms: _171  and  _173
REMARK   74  A    between atoms: _173  and  _174
REMARK   75  A    between atoms: _173  and  _176
REMARK   76  A    between atoms: _176  and  _177
REMARK   77  A    between atoms: _182  and  _183
REMARK   78  A    between atoms: _185  and  _187
REMARK   79  A    between atoms: _187  and  _188
REMARK   80  A    between atoms: _187  and  _190
REMARK   81  A    between atoms: _190  and  _191
REMARK   82  A    between atoms: _193  and  _195
REMARK   83  A    between atoms: _195  and  _196
REMARK   84  A    between atoms: _195  and  _198
REMARK   85  A    between atoms: _198  and  _199
REMARK   86  A    between atoms: _202  and  _204
REMARK   87  A    between atoms: _204  and  _205
REMARK   88  A    between atoms: _204  and  _207
REMARK   89  A    between atoms: _207  and  _208
REMARK   90  A    between atoms: _211  and  _213
REMARK   91  A    between atoms: _213  and  _214
REMARK   92  A    between atoms: _216  and  _218
REMARK   93  A    between atoms: _218  and  _219
REMARK   94  A    between atoms: _218  and  _221
REMARK   95  A    between atoms: _221  and  _222
REMARK   96  A    between atoms: _227  and  _228
REMARK   97  A    between atoms: _230  and  _232
REMARK   98  A    between atoms: _232  and  _233
REMARK   99  A    between atoms: _232  and  _235
REMARK  100  A    between atoms: _235  and  _236
REMARK  101  A    between atoms: _239  and  _241
REMARK  102  A    between atoms: _241  and  _242
REMARK  103  A    between atoms: _241  and  _244
REMARK  104  A    between atoms: _244  and  _245
REMARK  105  A    between atoms: _248  and  _250
REMARK  106  A    between atoms: _250  and  _251
REMARK  107  A    between atoms: _250  and  _253
REMARK  108  A    between atoms: _253  and  _254
REMARK  109  A    between atoms: _257  and  _259
REMARK  110  A    between atoms: _259  and  _260
REMARK  111  A    between atoms: _259  and  _262
REMARK  112  A    between atoms: _262  and  _263
REMARK  113  A    between atoms: _268  and  _269
REMARK  114  A    between atoms: _271  and  _273
REMARK  115  A    between atoms: _273  and  _274
REMARK  116  A    between atoms: _273  and  _276
REMARK  117  A    between atoms: _276  and  _277
REMARK  118  A    between atoms: _277  and  _278
REMARK  119  A    between atoms: _283  and  _285
REMARK  120  A    between atoms: _285  and  _286
REMARK  121  A    between atoms: _289  and  _291
REMARK  122  A    between atoms: _291  and  _292
REMARK  123  A    between atoms: _291  and  _294
REMARK  124  A    between atoms: _294  and  _295
REMARK  125  A    between atoms: _297  and  _299
REMARK  126  A    between atoms: _299  and  _300
REMARK  127  A    between atoms: _302  and  _304
REMARK  128  A    between atoms: _304  and  _305
REMARK  129  A    between atoms: _307  and  _309
REMARK  130  A    between atoms: _309  and  _310
REMARK  131  A    between atoms: _309  and  _312
REMARK  132  A    between atoms: _312  and  _313
REMARK  133  A    between atoms: _315  and  _317
REMARK  134  A    between atoms: _317  and  _318
REMARK  135  A    between atoms: _317  and  _320
REMARK  136  A    between atoms: _320  and  _321
REMARK  137  A    between atoms: _324  and  _326
REMARK  138  A    between atoms: _326  and  _327
REMARK  139  A    between atoms: _326  and  _329
REMARK  140  A    between atoms: _329  and  _330
REMARK  141  A    between atoms: _333  and  _335
REMARK  142  A    between atoms: _335  and  _336
REMARK  143  A    between atoms: _335  and  _338
REMARK  144  A    between atoms: _338  and  _339
REMARK  145  A    between atoms: _342  and  _344
REMARK  146  A    between atoms: _344  and  _345
REMARK  147  A    between atoms: _344  and  _347
REMARK  148  A    between atoms: _347  and  _348
REMARK  149  A    between atoms: _354  and  _356
REMARK  150  A    between atoms: _356  and  _357
REMARK  151  A    between atoms: _356  and  _359
REMARK  152  A    between atoms: _359  and  _360
REMARK  153  A    between atoms: _360  and  _361
REMARK  154  A    between atoms: _364  and  _366
REMARK  155  A    between atoms: _366  and  _367
REMARK  156  A    between atoms: _366  and  _369
REMARK  157  A    between atoms: _369  and  _370
REMARK  158  A    between atoms: _373  and  _375
REMARK  159  A    between atoms: _375  and  _376
REMARK  160  A    between atoms: _375  and  _378
REMARK  161  A    between atoms: _378  and  _379
REMARK                            x       y       z     vdW  Elec       q    Type
REMARK                         _______ _______ _______ _____ _____    ______ ____
ROOT
ATOM      1  O   HOH     1      -3.197  27.103 -13.619  0.00  0.00    +0.000 OA
ENDROOT
TORSDOF 0
REMARK  Name = ../refined-set-2016/1hdq/1hdq_pocket.pdb
REMARK  161 active torsions:
REMARK  status: ('A' for Active; 'I' for Inactive)
REMARK    1  A    between atoms: _1  and  _3
REMARK    2  A    between atoms: _3  and  _4
REMARK    3  A    between atoms: _3  and  _6
REMARK    4  A    between atoms: _6  and  _7
REMARK    5  A    between atoms: _10  and  _12
REMARK    6  A    between atoms: _12  and  _13
REMARK    7  A    between atoms: _12  and  _15
REMARK    8  A    between atoms: _15  and  _16
REMARK    9  A    between atoms: _17  and  ZN_385
REMARK   10  A    between atoms: _21  and  _23
REMARK   11  A    between atoms: _23  and  _24
REMARK   12  A    between atoms: _23  and  _26
REMARK   13  A    between atoms: _26  and  _27
REMARK   14  A    between atoms: _27  and  _28
REMARK   15  A    between atoms: _28  and  _29
REMARK   16  A    between atoms: _38  and  _40
REMARK   17  A    between atoms: _40  and  _41
REMARK   18  A    between atoms: _40  and  _43
REMARK   19  A    between atoms: _43  and  _44
REMARK   20  A    between atoms: _44  and  _45
REMARK   21  A    between atoms: _48  and  _50
REMARK   22  A    between atoms: _50  and  _51
REMARK   23  A    between atoms: _50  and  _53
REMARK   24  A    between atoms: _53  and  _54
REMARK   25  A    between atoms: _57  and  _59
REMARK   26  A    between atoms: _59  and  _60
REMARK   27  A    between atoms: _59  and  _62
REMARK   28  A    between atoms: _62  and  _63
REMARK   29  A    between atoms: _63  and  _64
REMARK   30  A    between atoms: _64  and  _65
REMARK   31  A    between atoms: _74  and  _76
REMARK   32  A    between atoms: _76  and  _77
REMARK   33  A    between atoms: _76  and  _79
REMARK   34  A    between atoms: _79  and  _80
REMARK   35  A    between atoms: _83  and  _85
REMARK   36  A    between atoms: _85  and  _86
REMARK   37  A    between atoms: _85  and  _88
REMARK   38  A    between atoms: _88  and  _89
REMARK   39  A    between atoms: _94  and  _96
REMARK   40  A    between atoms: _96  and  _97
REMARK   41  A    between atoms: _96  and  _99
REMARK   42  A    between atoms: _99  and  _100
REMARK   43  A    between atoms: _100  and  _101
REMARK   44  A    between atoms: _101  and  _102
REMARK   45  A    between atoms: _111  and  _113
REMARK   46  A    between atoms: _113  and  _114
REMARK   47  A    between atoms: _116  and  _118
REMARK   48  A    between atoms: _118  and  _119
REMARK   49  A    between atoms: _118  and  _121
REMARK   50  A    between atoms: _121  and  _122
REMARK   51  A    between atoms: _122  and  _123
REMARK   52  A    between atoms: _126  and  _128
REMARK   53  A    between atoms: _128  and  _129
REMARK   54  A    between atoms: _128  and  _131
REMARK   55  A    between atoms: _131  and  _132
REMARK   56  A    between atoms: _135  and  _137
REMARK   57  A    between atoms: _137  and  _138
REMARK   58  A    between atoms: _137  and  _140
REMARK   59  A    between atoms: _140  and  _141
REMARK   60  A    between atoms: _143  and  _145
REMARK   61  A    between atoms: _145  and  _146
REMARK   62  A    between atoms: _145  and  _148
REMARK   63  A    between atoms: _148  and  _149
REMARK   64  A    between atoms: _152  and  _154
REMARK   65  A    between atoms: _154  and  _155
REMARK   66  A    between atoms: _154  and  _157
REMARK   67  A    between atoms: _157  and  _158
REMARK   68  A    between atoms: _159  and  ZN_385
REMARK   69  A    between atoms: _163  and  _165
REMARK   70  A    between atoms: _165  and  _166
REMARK   71  A    between atoms: _165  and  _168
REMARK   72  A    between atoms: _168  and  _169
REMARK   73  A    between atoms: _171  and  _173
REMARK   74  A    between atoms: _173  and  _174
REMARK   75  A    between atoms: _173  and  _176
REMARK   76  A    between atoms: _176  and  _177
REMARK   77  A    between atoms: _182  and  _183
REMARK   78  A    between atoms: _185  and  _187
REMARK   79  A    between atoms: _187  and  _188
REMARK   80  A    between atoms: _187  and  _190
REMARK   81  A    between atoms: _190  and  _191
REMARK   82  A    between atoms: _193  and  _195
REMARK   83  A    between atoms: _195  and  _196
REMARK   84  A    between atoms: _195  and  _198
REMARK   85  A    between atoms: _198  and  _199
REMARK   86  A    between atoms: _202  and  _204
REMARK   87  A    between atoms: _204  and  _205
REMARK   88  A    between atoms: _204  and  _207
REMARK   89  A    between atoms: _207  and  _208
REMARK   90  A    between atoms: _211  and  _213
REMARK   91  A    between atoms: _213  and  _214
REMARK   92  A    between atoms: _216  and  _218
REMARK   93  A    between atoms: _218  and  _219
REMARK   94  A    between atoms: _218  and  _221
REMARK   95  A    between atoms: _221  and  _222
REMARK   96  A    between atoms: _227  and  _228
REMARK   97  A    between atoms: _230  and  _232
REMARK   98  A    between atoms: _232  and  _233
REMARK   99  A    between atoms: _232  and  _235
REMARK  100  A    between atoms: _235  and  _236
REMARK  101  A    between atoms: _239  and  _241
REMARK  102  A    between atoms: _241  and  _242
REMARK  103  A    between atoms: _241  and  _244
REMARK  104  A    between atoms: _244  and  _245
REMARK  105  A    between atoms: _248  and  _250
REMARK  106  A    between atoms: _250  and  _251
REMARK  107  A    between atoms: _250  and  _253
REMARK  108  A    between atoms: _253  and  _254
REMARK  109  A    between atoms: _257  and  _259
REMARK  110  A    between atoms: _259  and  _260
REMARK  111  A    between atoms: _259  and  _262
REMARK  112  A    between atoms: _262  and  _263
REMARK  113  A    between atoms: _268  and  _269
REMARK  114  A    between atoms: _271  and  _273
REMARK  115  A    between atoms: _273  and  _274
REMARK  116  A    between atoms: _273  and  _276
REMARK  117  A    between atoms: _276  and  _277
REMARK  118  A    between atoms: _277  and  _278
REMARK  119  A    between atoms: _283  and  _285
REMARK  120  A    between atoms: _285  and  _286
REMARK  121  A    between atoms: _289  and  _291
REMARK  122  A    between atoms: _291  and  _292
REMARK  123  A    between atoms: _291  and  _294
REMARK  124  A    between atoms: _294  and  _295
REMARK  125  A    between atoms: _297  and  _299
REMARK  126  A    between atoms: _299  and  _300
REMARK  127  A    between atoms: _302  and  _304
REMARK  128  A    between atoms: _304  and  _305
REMARK  129  A    between atoms: _307  and  _309
REMARK  130  A    between atoms: _309  and  _310
REMARK  131  A    between atoms: _309  and  _312
REMARK  132  A    between atoms: _312  and  _313
REMARK  133  A    between atoms: _315  and  _317
REMARK  134  A    between atoms: _317  and  _318
REMARK  135  A    between atoms: _317  and  _320
REMARK  136  A    between atoms: _320  and  _321
REMARK  137  A    between atoms: _324  and  _326
REMARK  138  A    between atoms: _326  and  _327
REMARK  139  A    between atoms: _326  and  _329
REMARK  140  A    between atoms: _329  and  _330
REMARK  141  A    between atoms: _333  and  _335
REMARK  142  A    between atoms: _335  and  _336
REMARK  143  A    between atoms: _335  and  _338
REMARK  144  A    between atoms: _338  and  _339
REMARK  145  A    between atoms: _342  and  _344
REMARK  146  A    between atoms: _344  and  _345
REMARK  147  A    between atoms: _344  and  _347
REMARK  148  A    between atoms: _347  and  _348
REMARK  149  A    between atoms: _354  and  _356
REMARK  150  A    between atoms: _356  and  _357
REMARK  151  A    between atoms: _356  and  _359
REMARK  152  A    between atoms: _359  and  _360
REMARK  153  A    between atoms: _360  and  _361
REMARK  154  A    between atoms: _364  and  _366
REMARK  155  A    between atoms: _366  and  _367
REMARK  156  A    between atoms: _366  and  _369
REMARK  157  A    between atoms: _369  and  _370
REMARK  158  A    between atoms: _373  and  _375
REMARK  159  A    between atoms: _375  and  _376
REMARK  160  A    between atoms: _375  and  _378
REMARK  161  A    between atoms: _378  and  _379
REMARK                            x       y       z     vdW  Elec       q    Type
REMARK                         _______ _______ _______ _____ _____    ______ ____
ROOT
ATOM      1  O   HOH     1      -1.057  28.524  -8.873  0.00  0.00    +0.000 OA
ENDROOT
TORSDOF 0
REMARK  Name = ../refined-set-2016/1hdq/1hdq_pocket.pdb
REMARK  161 active torsions:
REMARK  status: ('A' for Active; 'I' for Inactive)
REMARK    1  A    between atoms: _1  and  _3
REMARK    2  A    between atoms: _3  and  _4
REMARK    3  A    between atoms: _3  and  _6
REMARK    4  A    between atoms: _6  and  _7
REMARK    5  A    between atoms: _10  and  _12
REMARK    6  A    between atoms: _12  and  _13
REMARK    7  A    between atoms: _12  and  _15
REMARK    8  A    between atoms: _15  and  _16
REMARK    9  A    between atoms: _17  and  ZN_385
REMARK   10  A    between atoms: _21  and  _23
REMARK   11  A    between atoms: _23  and  _24
REMARK   12  A    between atoms: _23  and  _26
REMARK   13  A    between atoms: _26  and  _27
REMARK   14  A    between atoms: _27  and  _28
REMARK   15  A    between atoms: _28  and  _29
REMARK   16  A    between atoms: _38  and  _40
REMARK   17  A    between atoms: _40  and  _41
REMARK   18  A    between atoms: _40  and  _43
REMARK   19  A    between atoms: _43  and  _44
REMARK   20  A    between atoms: _44  and  _45
REMARK   21  A    between atoms: _48  and  _50
REMARK   22  A    between atoms: _50  and  _51
REMARK   23  A    between atoms: _50  and  _53
REMARK   24  A    between atoms: _53  and  _54
REMARK   25  A    between atoms: _57  and  _59
REMARK   26  A    between atoms: _59  and  _60
REMARK   27  A    between atoms: _59  and  _62
REMARK   28  A    between atoms: _62  and  _63
REMARK   29  A    between atoms: _63  and  _64
REMARK   30  A    between atoms: _64  and  _65
REMARK   31  A    between atoms: _74  and  _76
REMARK   32  A    between atoms: _76  and  _77
REMARK   33  A    between atoms: _76  and  _79
REMARK   34  A    between atoms: _79  and  _80
REMARK   35  A    between atoms: _83  and  _85
REMARK   36  A    between atoms: _85  and  _86
REMARK   37  A    between atoms: _85  and  _88
REMARK   38  A    between atoms: _88  and  _89
REMARK   39  A    between atoms: _94  and  _96
REMARK   40  A    between atoms: _96  and  _97
REMARK   41  A    between atoms: _96  and  _99
REMARK   42  A    between atoms: _99  and  _100
REMARK   43  A    between atoms: _100  and  _101
REMARK   44  A    between atoms: _101  and  _102
REMARK   45  A    between atoms: _111  and  _113
REMARK   46  A    between atoms: _113  and  _114
REMARK   47  A    between atoms: _116  and  _118
REMARK   48  A    between atoms: _118  and  _119
REMARK   49  A    between atoms: _118  and  _121
REMARK   50  A    between atoms: _121  and  _122
REMARK   51  A    between atoms: _122  and  _123
REMARK   52  A    between atoms: _126  and  _128
REMARK   53  A    between atoms: _128  and  _129
REMARK   54  A    between atoms: _128  and  _131
REMARK   55  A    between atoms: _131  and  _132
REMARK   56  A    between atoms: _135  and  _137
REMARK   57  A    between atoms: _137  and  _138
REMARK   58  A    between atoms: _137  and  _140
REMARK   59  A    between atoms: _140  and  _141
REMARK   60  A    between atoms: _143  and  _145
REMARK   61  A    between atoms: _145  and  _146
REMARK   62  A    between atoms: _145  and  _148
REMARK   63  A    between atoms: _148  and  _149
REMARK   64  A    between atoms: _152  and  _154
REMARK   65  A    between atoms: _154  and  _155
REMARK   66  A    between atoms: _154  and  _157
REMARK   67  A    between atoms: _157  and  _158
REMARK   68  A    between atoms: _159  and  ZN_385
REMARK   69  A    between atoms: _163  and  _165
REMARK   70  A    between atoms: _165  and  _166
REMARK   71  A    between atoms: _165  and  _168
REMARK   72  A    between atoms: _168  and  _169
REMARK   73  A    between atoms: _171  and  _173
REMARK   74  A    between atoms: _173  and  _174
REMARK   75  A    between atoms: _173  and  _176
REMARK   76  A    between atoms: _176  and  _177
REMARK   77  A    between atoms: _182  and  _183
REMARK   78  A    between atoms: _185  and  _187
REMARK   79  A    between atoms: _187  and  _188
REMARK   80  A    between atoms: _187  and  _190
REMARK   81  A    between atoms: _190  and  _191
REMARK   82  A    between atoms: _193  and  _195
REMARK   83  A    between atoms: _195  and  _196
REMARK   84  A    between atoms: _195  and  _198
REMARK   85  A    between atoms: _198  and  _199
REMARK   86  A    between atoms: _202  and  _204
REMARK   87  A    between atoms: _204  and  _205
REMARK   88  A    between atoms: _204  and  _207
REMARK   89  A    between atoms: _207  and  _208
REMARK   90  A    between atoms: _211  and  _213
REMARK   91  A    between atoms: _213  and  _214
REMARK   92  A    between atoms: _216  and  _218
REMARK   93  A    between atoms: _218  and  _219
REMARK   94  A    between atoms: _218  and  _221
REMARK   95  A    between atoms: _221  and  _222
REMARK   96  A    between atoms: _227  and  _228
REMARK   97  A    between atoms: _230  and  _232
REMARK   98  A    between atoms: _232  and  _233
REMARK   99  A    between atoms: _232  and  _235
REMARK  100  A    between atoms: _235  and  _236
REMARK  101  A    between atoms: _239  and  _241
REMARK  102  A    between atoms: _241  and  _242
REMARK  103  A    between atoms: _241  and  _244
REMARK  104  A    between atoms: _244  and  _245
REMARK  105  A    between atoms: _248  and  _250
REMARK  106  A    between atoms: _250  and  _251
REMARK  107  A    between atoms: _250  and  _253
REMARK  108  A    between atoms: _253  and  _254
REMARK  109  A    between atoms: _257  and  _259
REMARK  110  A    between atoms: _259  and  _260
REMARK  111  A    between atoms: _259  and  _262
REMARK  112  A    between atoms: _262  and  _263
REMARK  113  A    between atoms: _268  and  _269
REMARK  114  A    between atoms: _271  and  _273
REMARK  115  A    between atoms: _273  and  _274
REMARK  116  A    between atoms: _273  and  _276
REMARK  117  A    between atoms: _276  and  _277
REMARK  118  A    between atoms: _277  and  _278
REMARK  119  A    between atoms: _283  and  _285
REMARK  120  A    between atoms: _285  and  _286
REMARK  121  A    between atoms: _289  and  _291
REMARK  122  A    between atoms: _291  and  _292
REMARK  123  A    between atoms: _291  and  _294
REMARK  124  A    between atoms: _294  and  _295
REMARK  125  A    between atoms: _297  and  _299
REMARK  126  A    between atoms: _299  and  _300
REMARK  127  A    between atoms: _302  and  _304
REMARK  128  A    between atoms: _304  and  _305
REMARK  129  A    between atoms: _307  and  _309
REMARK  130  A    between atoms: _309  and  _310
REMARK  131  A    between atoms: _309  and  _312
REMARK  132  A    between atoms: _312  and  _313
REMARK  133  A    between atoms: _315  and  _317
REMARK  134  A    between atoms: _317  and  _318
REMARK  135  A    between atoms: _317  and  _320
REMARK  136  A    between atoms: _320  and  _321
REMARK  137  A    between atoms: _324  and  _326
REMARK  138  A    between atoms: _326  and  _327
REMARK  139  A    between atoms: _326  and  _329
REMARK  140  A    between atoms: _329  and  _330
REMARK  141  A    between atoms: _333  and  _335
REMARK  142  A    between atoms: _335  and  _336
REMARK  143  A    between atoms: _335  and  _338
REMARK  144  A    between atoms: _338  and  _339
REMARK  145  A    between atoms: _342  and  _344
REMARK  146  A    between atoms: _344  and  _345
REMARK  147  A    between atoms: _344  and  _347
REMARK  148  A    between atoms: _347  and  _348
REMARK  149  A    between atoms: _354  and  _356
REMARK  150  A    between atoms: _356  and  _357
REMARK  151  A    between atoms: _356  and  _359
REMARK  152  A    between atoms: _359  and  _360
REMARK  153  A    between atoms: _360  and  _361
REMARK  154  A    between atoms: _364  and  _366
REMARK  155  A    between atoms: _366  and  _367
REMARK  156  A    between atoms: _366  and  _369
REMARK  157  A    between atoms: _369  and  _370
REMARK  158  A    between atoms: _373  and  _375
REMARK  159  A    between atoms: _375  and  _376
REMARK  160  A    between atoms: _375  and  _378
REMARK  161  A    between atoms: _378  and  _379
REMARK                            x       y       z     vdW  Elec       q    Type
REMARK                         _______ _______ _______ _____ _____    ______ ____
ROOT
ATOM      1  O   HOH     1      -4.718  31.932  -2.256  0.00  0.00    +0.000 OA
ENDROOT
TORSDOF 0
REMARK  Name = ../refined-set-2016/1hdq/1hdq_pocket.pdb
REMARK  161 active torsions:
REMARK  status: ('A' for Active; 'I' for Inactive)
REMARK    1  A    between atoms: _1  and  _3
REMARK    2  A    between atoms: _3  and  _4
REMARK    3  A    between atoms: _3  and  _6
REMARK    4  A    between atoms: _6  and  _7
REMARK    5  A    between atoms: _10  and  _12
REMARK    6  A    between atoms: _12  and  _13
REMARK    7  A    between atoms: _12  and  _15
REMARK    8  A    between atoms: _15  and  _16
REMARK    9  A    between atoms: _17  and  ZN_385
REMARK   10  A    between atoms: _21  and  _23
REMARK   11  A    between atoms: _23  and  _24
REMARK   12  A    between atoms: _23  and  _26
REMARK   13  A    between atoms: _26  and  _27
REMARK   14  A    between atoms: _27  and  _28
REMARK   15  A    between atoms: _28  and  _29
REMARK   16  A    between atoms: _38  and  _40
REMARK   17  A    between atoms: _40  and  _41
REMARK   18  A    between atoms: _40  and  _43
REMARK   19  A    between atoms: _43  and  _44
REMARK   20  A    between atoms: _44  and  _45
REMARK   21  A    between atoms: _48  and  _50
REMARK   22  A    between atoms: _50  and  _51
REMARK   23  A    between atoms: _50  and  _53
REMARK   24  A    between atoms: _53  and  _54
REMARK   25  A    between atoms: _57  and  _59
REMARK   26  A    between atoms: _59  and  _60
REMARK   27  A    between atoms: _59  and  _62
REMARK   28  A    between atoms: _62  and  _63
REMARK   29  A    between atoms: _63  and  _64
REMARK   30  A    between atoms: _64  and  _65
REMARK   31  A    between atoms: _74  and  _76
REMARK   32  A    between atoms: _76  and  _77
REMARK   33  A    between atoms: _76  and  _79
REMARK   34  A    between atoms: _79  and  _80
REMARK   35  A    between atoms: _83  and  _85
REMARK   36  A    between atoms: _85  and  _86
REMARK   37  A    between atoms: _85  and  _88
REMARK   38  A    between atoms: _88  and  _89
REMARK   39  A    between atoms: _94  and  _96
REMARK   40  A    between atoms: _96  and  _97
REMARK   41  A    between atoms: _96  and  _99
REMARK   42  A    between atoms: _99  and  _100
REMARK   43  A    between atoms: _100  and  _101
REMARK   44  A    between atoms: _101  and  _102
REMARK   45  A    between atoms: _111  and  _113
REMARK   46  A    between atoms: _113  and  _114
REMARK   47  A    between atoms: _116  and  _118
REMARK   48  A    between atoms: _118  and  _119
REMARK   49  A    between atoms: _118  and  _121
REMARK   50  A    between atoms: _121  and  _122
REMARK   51  A    between atoms: _122  and  _123
REMARK   52  A    between atoms: _126  and  _128
REMARK   53  A    between atoms: _128  and  _129
REMARK   54  A    between atoms: _128  and  _131
REMARK   55  A    between atoms: _131  and  _132
REMARK   56  A    between atoms: _135  and  _137
REMARK   57  A    between atoms: _137  and  _138
REMARK   58  A    between atoms: _137  and  _140
REMARK   59  A    between atoms: _140  and  _141
REMARK   60  A    between atoms: _143  and  _145
REMARK   61  A    between atoms: _145  and  _146
REMARK   62  A    between atoms: _145  and  _148
REMARK   63  A    between atoms: _148  and  _149
REMARK   64  A    between atoms: _152  and  _154
REMARK   65  A    between atoms: _154  and  _155
REMARK   66  A    between atoms: _154  and  _157
REMARK   67  A    between atoms: _157  and  _158
REMARK   68  A    between atoms: _159  and  ZN_385
REMARK   69  A    between atoms: _163  and  _165
REMARK   70  A    between atoms: _165  and  _166
REMARK   71  A    between atoms: _165  and  _168
REMARK   72  A    between atoms: _168  and  _169
REMARK   73  A    between atoms: _171  and  _173
REMARK   74  A    between atoms: _173  and  _174
REMARK   75  A    between atoms: _173  and  _176
REMARK   76  A    between atoms: _176  and  _177
REMARK   77  A    between atoms: _182  and  _183
REMARK   78  A    between atoms: _185  and  _187
REMARK   79  A    between atoms: _187  and  _188
REMARK   80  A    between atoms: _187  and  _190
REMARK   81  A    between atoms: _190  and  _191
REMARK   82  A    between atoms: _193  and  _195
REMARK   83  A    between atoms: _195  and  _196
REMARK   84  A    between atoms: _195  and  _198
REMARK   85  A    between atoms: _198  and  _199
REMARK   86  A    between atoms: _202  and  _204
REMARK   87  A    between atoms: _204  and  _205
REMARK   88  A    between atoms: _204  and  _207
REMARK   89  A    between atoms: _207  and  _208
REMARK   90  A    between atoms: _211  and  _213
REMARK   91  A    between atoms: _213  and  _214
REMARK   92  A    between atoms: _216  and  _218
REMARK   93  A    between atoms: _218  and  _219
REMARK   94  A    between atoms: _218  and  _221
REMARK   95  A    between atoms: _221  and  _222
REMARK   96  A    between atoms: _227  and  _228
REMARK   97  A    between atoms: _230  and  _232
REMARK   98  A    between atoms: _232  and  _233
REMARK   99  A    between atoms: _232  and  _235
REMARK  100  A    between atoms: _235  and  _236
REMARK  101  A    between atoms: _239  and  _241
REMARK  102  A    between atoms: _241  and  _242
REMARK  103  A    between atoms: _241  and  _244
REMARK  104  A    between atoms: _244  and  _245
REMARK  105  A    between atoms: _248  and  _250
REMARK  106  A    between atoms: _250  and  _251
REMARK  107  A    between atoms: _250  and  _253
REMARK  108  A    between atoms: _253  and  _254
REMARK  109  A    between atoms: _257  and  _259
REMARK  110  A    between atoms: _259  and  _260
REMARK  111  A    between atoms: _259  and  _262
REMARK  112  A    between atoms: _262  and  _263
REMARK  113  A    between atoms: _268  and  _269
REMARK  114  A    between atoms: _271  and  _273
REMARK  115  A    between atoms: _273  and  _274
REMARK  116  A    between atoms: _273  and  _276
REMARK  117  A    between atoms: _276  and  _277
REMARK  118  A    between atoms: _277  and  _278
REMARK  119  A    between atoms: _283  and  _285
REMARK  120  A    between atoms: _285  and  _286
REMARK  121  A    between atoms: _289  and  _291
REMARK  122  A    between atoms: _291  and  _292
REMARK  123  A    between atoms: _291  and  _294
REMARK  124  A    between atoms: _294  and  _295
REMARK  125  A    between atoms: _297  and  _299
REMARK  126  A    between atoms: _299  and  _300
REMARK  127  A    between atoms: _302  and  _304
REMARK  128  A    between atoms: _304  and  _305
REMARK  129  A    between atoms: _307  and  _309
REMARK  130  A    between atoms: _309  and  _310
REMARK  131  A    between atoms: _309  and  _312
REMARK  132  A    between atoms: _312  and  _313
REMARK  133  A    between atoms: _315  and  _317
REMARK  134  A    between atoms: _317  and  _318
REMARK  135  A    between atoms: _317  and  _320
REMARK  136  A    between atoms: _320  and  _321
REMARK  137  A    between atoms: _324  and  _326
REMARK  138  A    between atoms: _326  and  _327
REMARK  139  A    between atoms: _326  and  _329
REMARK  140  A    between atoms: _329  and  _330
REMARK  141  A    between atoms: _333  and  _335
REMARK  142  A    between atoms: _335  and  _336
REMARK  143  A    between atoms: _335  and  _338
REMARK  144  A    between atoms: _338  and  _339
REMARK  145  A    between atoms: _342  and  _344
REMARK  146  A    between atoms: _344  and  _345
REMARK  147  A    between atoms: _344  and  _347
REMARK  148  A    between atoms: _347  and  _348
REMARK  149  A    between atoms: _354  and  _356
REMARK  150  A    between atoms: _356  and  _357
REMARK  151  A    between atoms: _356  and  _359
REMARK  152  A    between atoms: _359  and  _360
REMARK  153  A    between atoms: _360  and  _361
REMARK  154  A    between atoms: _364  and  _366
REMARK  155  A    between atoms: _366  and  _367
REMARK  156  A    between atoms: _366  and  _369
REMARK  157  A    between atoms: _369  and  _370
REMARK  158  A    between atoms: _373  and  _375
REMARK  159  A    between atoms: _375  and  _376
REMARK  160  A    between atoms: _375  and  _378
REMARK  161  A    between atoms: _378  and  _379
REMARK                            x       y       z     vdW  Elec       q    Type
REMARK                         _______ _______ _______ _____ _____    ______ ____
ROOT
ATOM      1  O   HOH     1       2.382  32.193  -4.109  0.00  0.00    +0.000 OA
ENDROOT
TORSDOF 0
