REMARK  Name = ../refined-set-2016/4x5z/4x5z_pocket.pdb
REMARK  231 active torsions:
REMARK  status: ('A' for Active; 'I' for Inactive)
REMARK    1  A    between atoms: _1  and  _3
REMARK    2  A    between atoms: _3  and  _4
REMARK    3  A    between atoms: _3  and  _6
REMARK    4  A    between atoms: _6  and  _7
REMARK    5  A    between atoms: _10  and  _12
REMARK    6  A    between atoms: _12  and  _13
REMARK    7  A    between atoms: _12  and  _15
REMARK    8  A    between atoms: _15  and  _16
REMARK    9  A    between atoms: _18  and  _20
REMARK   10  A    between atoms: _20  and  _21
REMARK   11  A    between atoms: _20  and  _23
REMARK   12  A    between atoms: _23  and  _24
REMARK   13  A    between atoms: _26  and  _28
REMARK   14  A    between atoms: _28  and  _29
REMARK   15  A    between atoms: _31  and  _33
REMARK   16  A    between atoms: _33  and  _34
REMARK   17  A    between atoms: _37  and  _39
REMARK   18  A    between atoms: _39  and  _40
REMARK   19  A    between atoms: _39  and  _42
REMARK   20  A    between atoms: _42  and  _43
REMARK   21  A    between atoms: _49  and  _51
REMARK   22  A    between atoms: _51  and  _52
REMARK   23  A    between atoms: _51  and  _54
REMARK   24  A    between atoms: _54  and  _55
REMARK   25  A    between atoms: _58  and  _60
REMARK   26  A    between atoms: _60  and  _61
REMARK   27  A    between atoms: _64  and  _66
REMARK   28  A    between atoms: _66  and  _67
REMARK   29  A    between atoms: _66  and  _69
REMARK   30  A    between atoms: _69  and  _70
REMARK   31  A    between atoms: _73  and  _75
REMARK   32  A    between atoms: _75  and  _76
REMARK   33  A    between atoms: _75  and  _78
REMARK   34  A    between atoms: _78  and  _79
REMARK   35  A    between atoms: _81  and  _83
REMARK   36  A    between atoms: _83  and  _84
REMARK   37  A    between atoms: _83  and  _86
REMARK   38  A    between atoms: _86  and  _87
REMARK   39  A    between atoms: _87  and  _88
REMARK   40  A    between atoms: _91  and  _93
REMARK   41  A    between atoms: _93  and  _94
REMARK   42  A    between atoms: _93  and  _96
REMARK   43  A    between atoms: _96  and  _97
REMARK   44  A    between atoms: _100  and  _102
REMARK   45  A    between atoms: _102  and  _103
REMARK   46  A    between atoms: _102  and  _105
REMARK   47  A    between atoms: _105  and  _106
REMARK   48  A    between atoms: _111  and  _113
REMARK   49  A    between atoms: _113  and  _114
REMARK   50  A    between atoms: _117  and  _119
REMARK   51  A    between atoms: _119  and  _120
REMARK   52  A    between atoms: _119  and  _122
REMARK   53  A    between atoms: _122  and  _123
REMARK   54  A    between atoms: _133  and  _135
REMARK   55  A    between atoms: _135  and  _136
REMARK   56  A    between atoms: _135  and  _138
REMARK   57  A    between atoms: _138  and  _139
REMARK   58  A    between atoms: _142  and  _144
REMARK   59  A    between atoms: _144  and  _145
REMARK   60  A    between atoms: _144  and  _147
REMARK   61  A    between atoms: _147  and  _148
REMARK   62  A    between atoms: _158  and  _160
REMARK   63  A    between atoms: _160  and  _161
REMARK   64  A    between atoms: _160  and  _163
REMARK   65  A    between atoms: _163  and  _164
REMARK   66  A    between atoms: _169  and  _171
REMARK   67  A    between atoms: _171  and  _172
REMARK   68  A    between atoms: _174  and  _176
REMARK   69  A    between atoms: _176  and  _177
REMARK   70  A    between atoms: _176  and  _179
REMARK   71  A    between atoms: _179  and  _180
REMARK   72  A    between atoms: _190  and  _192
REMARK   73  A    between atoms: _192  and  _193
REMARK   74  A    between atoms: _192  and  _195
REMARK   75  A    between atoms: _195  and  _196
REMARK   76  A    between atoms: _199  and  _201
REMARK   77  A    between atoms: _201  and  _202
REMARK   78  A    between atoms: _201  and  _204
REMARK   79  A    between atoms: _204  and  _205
REMARK   80  A    between atoms: _205  and  _206
REMARK   81  A    between atoms: _208  and  _210
REMARK   82  A    between atoms: _210  and  _211
REMARK   83  A    between atoms: _210  and  _213
REMARK   84  A    between atoms: _215  and  _217
REMARK   85  A    between atoms: _217  and  _218
REMARK   86  A    between atoms: _221  and  _223
REMARK   87  A    between atoms: _223  and  _224
REMARK   88  A    between atoms: _223  and  _226
REMARK   89  A    between atoms: _226  and  _227
REMARK   90  A    between atoms: _233  and  _235
REMARK   91  A    between atoms: _235  and  _236
REMARK   92  A    between atoms: _235  and  _238
REMARK   93  A    between atoms: _238  and  _239
REMARK   94  A    between atoms: _239  and  _240
REMARK   95  A    between atoms: _242  and  _244
REMARK   96  A    between atoms: _244  and  _245
REMARK   97  A    between atoms: _244  and  _247
REMARK   98  A    between atoms: _250  and  _252
REMARK   99  A    between atoms: _252  and  _253
REMARK  100  A    between atoms: _252  and  _255
REMARK  101  A    between atoms: _257  and  _259
REMARK  102  A    between atoms: _259  and  _260
REMARK  103  A    between atoms: _263  and  _265
REMARK  104  A    between atoms: _265  and  _266
REMARK  105  A    between atoms: _265  and  _268
REMARK  106  A    between atoms: _268  and  _269
REMARK  107  A    between atoms: _269  and  _270
REMARK  108  A    between atoms: _275  and  _277
REMARK  109  A    between atoms: _277  and  _278
REMARK  110  A    between atoms: _277  and  _280
REMARK  111  A    between atoms: _280  and  _281
REMARK  112  A    between atoms: _286  and  _287
REMARK  113  A    between atoms: _290  and  _291
REMARK  114  A    between atoms: _296  and  _298
REMARK  115  A    between atoms: _298  and  _299
REMARK  116  A    between atoms: _298  and  _301
REMARK  117  A    between atoms: _301  and  _302
REMARK  118  A    between atoms: _302  and  _303
REMARK  119  A    between atoms: _305  and  _307
REMARK  120  A    between atoms: _307  and  _308
REMARK  121  A    between atoms: _311  and  _313
REMARK  122  A    between atoms: _313  and  _314
REMARK  123  A    between atoms: _313  and  _316
REMARK  124  A    between atoms: _316  and  _317
REMARK  125  A    between atoms: _320  and  _322
REMARK  126  A    between atoms: _322  and  _323
REMARK  127  A    between atoms: _325  and  _327
REMARK  128  A    between atoms: _327  and  _328
REMARK  129  A    between atoms: _327  and  _330
REMARK  130  A    between atoms: _330  and  _331
REMARK  131  A    between atoms: _336  and  _338
REMARK  132  A    between atoms: _338  and  _339
REMARK  133  A    between atoms: _338  and  _341
REMARK  134  A    between atoms: _341  and  _342
REMARK  135  A    between atoms: _345  and  _347
REMARK  136  A    between atoms: _347  and  _348
REMARK  137  A    between atoms: _347  and  _350
REMARK  138  A    between atoms: _350  and  _351
REMARK  139  A    between atoms: _356  and  _357
REMARK  140  A    between atoms: _359  and  _361
REMARK  141  A    between atoms: _361  and  _362
REMARK  142  A    between atoms: _361  and  _364
REMARK  143  A    between atoms: _364  and  _365
REMARK  144  A    between atoms: _368  and  _370
REMARK  145  A    between atoms: _370  and  _371
REMARK  146  A    between atoms: _370  and  _373
REMARK  147  A    between atoms: _373  and  _374
REMARK  148  A    between atoms: _379  and  _380
REMARK  149  A    between atoms: _383  and  _384
REMARK  150  A    between atoms: _389  and  _391
REMARK  151  A    between atoms: _391  and  _392
REMARK  152  A    between atoms: _391  and  _394
REMARK  153  A    between atoms: _394  and  _395
REMARK  154  A    between atoms: _400  and  _401
REMARK  155  A    between atoms: _403  and  _405
REMARK  156  A    between atoms: _405  and  _406
REMARK  157  A    between atoms: _405  and  _408
REMARK  158  A    between atoms: _408  and  _409
REMARK  159  A    between atoms: _409  and  _410
REMARK  160  A    between atoms: _412  and  _414
REMARK  161  A    between atoms: _414  and  _415
REMARK  162  A    between atoms: _414  and  _417
REMARK  163  A    between atoms: _417  and  _418
REMARK  164  A    between atoms: _423  and  _424
REMARK  165  A    between atoms: _426  and  _428
REMARK  166  A    between atoms: _428  and  _429
REMARK  167  A    between atoms: _428  and  _431
REMARK  168  A    between atoms: _431  and  _432
REMARK  169  A    between atoms: _435  and  _437
REMARK  170  A    between atoms: _437  and  _438
REMARK  171  A    between atoms: _441  and  _443
REMARK  172  A    between atoms: _443  and  _444
REMARK  173  A    between atoms: _446  and  _448
REMARK  174  A    between atoms: _448  and  _449
REMARK  175  A    between atoms: _448  and  _451
REMARK  176  A    between atoms: _451  and  _452
REMARK  177  A    between atoms: _457  and  _458
REMARK  178  A    between atoms: _460  and  _462
REMARK  179  A    between atoms: _462  and  _463
REMARK  180  A    between atoms: _462  and  _465
REMARK  181  A    between atoms: _465  and  _466
REMARK  182  A    between atoms: _471  and  _473
REMARK  183  A    between atoms: _473  and  _474
REMARK  184  A    between atoms: _473  and  _476
REMARK  185  A    between atoms: _478  and  _480
REMARK  186  A    between atoms: _480  and  _481
REMARK  187  A    between atoms: _480  and  _483
REMARK  188  A    between atoms: _483  and  _484
REMARK  189  A    between atoms: _484  and  _485
REMARK  190  A    between atoms: _485  and  _486
REMARK  191  A    between atoms: _495  and  _497
REMARK  192  A    between atoms: _497  and  _498
REMARK  193  A    between atoms: _501  and  _503
REMARK  194  A    between atoms: _503  and  _504
REMARK  195  A    between atoms: _507  and  _509
REMARK  196  A    between atoms: _509  and  _510
REMARK  197  A    between atoms: _509  and  _512
REMARK  198  A    between atoms: _512  and  _513
REMARK  199  A    between atoms: _523  and  _525
REMARK  200  A    between atoms: _525  and  _526
REMARK  201  A    between atoms: _525  and  _528
REMARK  202  A    between atoms: _528  and  _529
REMARK  203  A    between atoms: _532  and  _534
REMARK  204  A    between atoms: _534  and  _535
REMARK  205  A    between atoms: _534  and  _537
REMARK  206  A    between atoms: _537  and  _538
REMARK  207  A    between atoms: _538  and  _539
REMARK  208  A    between atoms: _542  and  _544
REMARK  209  A    between atoms: _544  and  _545
REMARK  210  A    between atoms: _544  and  _547
REMARK  211  A    between atoms: _547  and  _548
REMARK  212  A    between atoms: _551  and  _553
REMARK  213  A    between atoms: _553  and  _554
REMARK  214  A    between atoms: _553  and  _556
REMARK  215  A    between atoms: _556  and  _557
REMARK  216  A    between atoms: _557  and  _558
REMARK  217  A    between atoms: _561  and  _563
REMARK  218  A    between atoms: _563  and  _564
REMARK  219  A    between atoms: _563  and  _566
REMARK  220  A    between atoms: _566  and  _567
REMARK  221  A    between atoms: _573  and  _575
REMARK  222  A    between atoms: _575  and  _576
REMARK  223  A    between atoms: _575  and  _578
REMARK  224  A    between atoms: _578  and  _579
REMARK  225  A    between atoms: _579  and  _580
REMARK  226  A    between atoms: _583  and  _585
REMARK  227  A    between atoms: _585  and  _586
REMARK  228  A    between atoms: _585  and  _588
REMARK  229  A    between atoms: _591  and  _593
REMARK  230  A    between atoms: _593  and  _594
REMARK  231  A    between atoms: _593  and  _596
REMARK                            x       y       z     vdW  Elec       q    Type
REMARK                         _______ _______ _______ _____ _____    ______ ____
ROOT
ATOM      1  CA  SER A   2      24.065   6.893   7.501  0.00  0.00    +0.178 C 
ENDROOT
BRANCH   1   3
ATOM      2  C   ASP A   1      23.325   6.617   5.170  0.00  0.00    +0.239 C 
ATOM      3  N   SER A   2      23.582   7.412   6.203  0.00  0.00    -0.295 N 
ATOM      4  H   SER A   2      23.438   8.436   6.095  0.00  0.00    +0.150 HD
ATOM      5  O   ASP A   1      23.384   5.392   5.254  0.00  0.00    -0.274 OA
BRANCH   2   6
ATOM      6  CA  ASP A   1      23.001   7.269   3.821  0.00  0.00    +0.156 C 
BRANCH   6   7
ATOM      7  N   ASP A   1      22.909   6.215   2.785  0.00  0.00    -0.238 NA
ATOM      8  H   ASP A   1      21.974   5.903   2.454  0.00  0.00    +0.142 HD
ENDBRANCH   6   7
BRANCH   6   9
ATOM      9  CB  ASP A   1      21.752   8.172   3.823  0.00  0.00    +0.140 C 
BRANCH   9  10
ATOM     10  CG  ASP A   1      20.467   7.431   4.077  0.00  0.00    +0.367 C 
ATOM     11  OD2 ASP A   1      20.457   6.355   4.683  0.00  0.00    -0.246 OA
ATOM     12  OD1 ASP A   1      19.406   7.927   3.663  0.00  0.00    -0.246 OA
ENDBRANCH   9  10
ENDBRANCH   6   9
ENDBRANCH   2   6
ENDBRANCH   1   3
BRANCH   1  13
ATOM     13  C   SER A   2      23.205   5.806   8.089  0.00  0.00    +0.243 C 
ATOM     14  O   SER A   2      23.703   4.740   8.448  0.00  0.00    -0.273 OA
ATOM     15  N   SER A   3      21.913   6.081   8.255  0.00  0.00    -0.295 N 
ATOM     16  H   SER A   3      21.525   6.992   7.938  0.00  0.00    +0.150 HD
BRANCH  15  17
ATOM     17  CA  SER A   3      21.050   5.093   8.885  0.00  0.00    +0.178 C 
BRANCH  17  18
ATOM     18  C   SER A   3      20.828   3.934   7.939  0.00  0.00    +0.243 C 
ATOM     19  O   SER A   3      20.551   2.827   8.371  0.00  0.00    -0.273 OA
ATOM     20  N   GLY A   4      20.898   4.182   6.637  0.00  0.00    -0.296 N 
ATOM     21  H   GLY A   4      21.033   5.163   6.319  0.00  0.00    +0.150 HD
BRANCH  20  22
ATOM     22  CA  GLY A   4      20.793   3.133   5.644  0.00  0.00    +0.163 C 
BRANCH  22  23
ATOM     23  C   GLY A   4      21.872   2.052   5.833  0.00  0.00    +0.229 C 
ATOM     24  O   GLY A   4      21.614   0.876   5.608  0.00  0.00    -0.286 OA
ENDBRANCH  22  23
ENDBRANCH  20  22
ENDBRANCH  17  18
BRANCH  17  25
ATOM     25  CB  SER A   3      19.733   5.710   9.418  0.00  0.00    +0.166 C 
BRANCH  25  26
ATOM     26  OG  SER A   3      18.966   6.389   8.447  0.00  0.00    -0.380 OA
ATOM     27  H   SER A   3      19.499   7.132   8.068  0.00  0.00    +0.211 HD
ENDBRANCH  25  26
ENDBRANCH  17  25
ENDBRANCH  15  17
ENDBRANCH   1  13
BRANCH   1  28
ATOM     28  CB  SER A   2      24.183   8.039   8.551  0.00  0.00    +0.166 C 
BRANCH  28  29
ATOM     29  OG  SER A   2      24.398   7.508   9.865  0.00  0.00    -0.380 OA
ATOM     30  H   SER A   2      24.470   8.253  10.513  0.00  0.00    +0.211 HD
ENDBRANCH  28  29
ENDBRANCH   1  28
TORSDOF 14
REMARK  Name = ../refined-set-2016/4x5z/4x5z_pocket.pdb
REMARK  231 active torsions:
REMARK  status: ('A' for Active; 'I' for Inactive)
REMARK    1  A    between atoms: _1  and  _3
REMARK    2  A    between atoms: _3  and  _4
REMARK    3  A    between atoms: _3  and  _6
REMARK    4  A    between atoms: _6  and  _7
REMARK    5  A    between atoms: _10  and  _12
REMARK    6  A    between atoms: _12  and  _13
REMARK    7  A    between atoms: _12  and  _15
REMARK    8  A    between atoms: _15  and  _16
REMARK    9  A    between atoms: _18  and  _20
REMARK   10  A    between atoms: _20  and  _21
REMARK   11  A    between atoms: _20  and  _23
REMARK   12  A    between atoms: _23  and  _24
REMARK   13  A    between atoms: _26  and  _28
REMARK   14  A    between atoms: _28  and  _29
REMARK   15  A    between atoms: _31  and  _33
REMARK   16  A    between atoms: _33  and  _34
REMARK   17  A    between atoms: _37  and  _39
REMARK   18  A    between atoms: _39  and  _40
REMARK   19  A    between atoms: _39  and  _42
REMARK   20  A    between atoms: _42  and  _43
REMARK   21  A    between atoms: _49  and  _51
REMARK   22  A    between atoms: _51  and  _52
REMARK   23  A    between atoms: _51  and  _54
REMARK   24  A    between atoms: _54  and  _55
REMARK   25  A    between atoms: _58  and  _60
REMARK   26  A    between atoms: _60  and  _61
REMARK   27  A    between atoms: _64  and  _66
REMARK   28  A    between atoms: _66  and  _67
REMARK   29  A    between atoms: _66  and  _69
REMARK   30  A    between atoms: _69  and  _70
REMARK   31  A    between atoms: _73  and  _75
REMARK   32  A    between atoms: _75  and  _76
REMARK   33  A    between atoms: _75  and  _78
REMARK   34  A    between atoms: _78  and  _79
REMARK   35  A    between atoms: _81  and  _83
REMARK   36  A    between atoms: _83  and  _84
REMARK   37  A    between atoms: _83  and  _86
REMARK   38  A    between atoms: _86  and  _87
REMARK   39  A    between atoms: _87  and  _88
REMARK   40  A    between atoms: _91  and  _93
REMARK   41  A    between atoms: _93  and  _94
REMARK   42  A    between atoms: _93  and  _96
REMARK   43  A    between atoms: _96  and  _97
REMARK   44  A    between atoms: _100  and  _102
REMARK   45  A    between atoms: _102  and  _103
REMARK   46  A    between atoms: _102  and  _105
REMARK   47  A    between atoms: _105  and  _106
REMARK   48  A    between atoms: _111  and  _113
REMARK   49  A    between atoms: _113  and  _114
REMARK   50  A    between atoms: _117  and  _119
REMARK   51  A    between atoms: _119  and  _120
REMARK   52  A    between atoms: _119  and  _122
REMARK   53  A    between atoms: _122  and  _123
REMARK   54  A    between atoms: _133  and  _135
REMARK   55  A    between atoms: _135  and  _136
REMARK   56  A    between atoms: _135  and  _138
REMARK   57  A    between atoms: _138  and  _139
REMARK   58  A    between atoms: _142  and  _144
REMARK   59  A    between atoms: _144  and  _145
REMARK   60  A    between atoms: _144  and  _147
REMARK   61  A    between atoms: _147  and  _148
REMARK   62  A    between atoms: _158  and  _160
REMARK   63  A    between atoms: _160  and  _161
REMARK   64  A    between atoms: _160  and  _163
REMARK   65  A    between atoms: _163  and  _164
REMARK   66  A    between atoms: _169  and  _171
REMARK   67  A    between atoms: _171  and  _172
REMARK   68  A    between atoms: _174  and  _176
REMARK   69  A    between atoms: _176  and  _177
REMARK   70  A    between atoms: _176  and  _179
REMARK   71  A    between atoms: _179  and  _180
REMARK   72  A    between atoms: _190  and  _192
REMARK   73  A    between atoms: _192  and  _193
REMARK   74  A    between atoms: _192  and  _195
REMARK   75  A    between atoms: _195  and  _196
REMARK   76  A    between atoms: _199  and  _201
REMARK   77  A    between atoms: _201  and  _202
REMARK   78  A    between atoms: _201  and  _204
REMARK   79  A    between atoms: _204  and  _205
REMARK   80  A    between atoms: _205  and  _206
REMARK   81  A    between atoms: _208  and  _210
REMARK   82  A    between atoms: _210  and  _211
REMARK   83  A    between atoms: _210  and  _213
REMARK   84  A    between atoms: _215  and  _217
REMARK   85  A    between atoms: _217  and  _218
REMARK   86  A    between atoms: _221  and  _223
REMARK   87  A    between atoms: _223  and  _224
REMARK   88  A    between atoms: _223  and  _226
REMARK   89  A    between atoms: _226  and  _227
REMARK   90  A    between atoms: _233  and  _235
REMARK   91  A    between atoms: _235  and  _236
REMARK   92  A    between atoms: _235  and  _238
REMARK   93  A    between atoms: _238  and  _239
REMARK   94  A    between atoms: _239  and  _240
REMARK   95  A    between atoms: _242  and  _244
REMARK   96  A    between atoms: _244  and  _245
REMARK   97  A    between atoms: _244  and  _247
REMARK   98  A    between atoms: _250  and  _252
REMARK   99  A    between atoms: _252  and  _253
REMARK  100  A    between atoms: _252  and  _255
REMARK  101  A    between atoms: _257  and  _259
REMARK  102  A    between atoms: _259  and  _260
REMARK  103  A    between atoms: _263  and  _265
REMARK  104  A    between atoms: _265  and  _266
REMARK  105  A    between atoms: _265  and  _268
REMARK  106  A    between atoms: _268  and  _269
REMARK  107  A    between atoms: _269  and  _270
REMARK  108  A    between atoms: _275  and  _277
REMARK  109  A    between atoms: _277  and  _278
REMARK  110  A    between atoms: _277  and  _280
REMARK  111  A    between atoms: _280  and  _281
REMARK  112  A    between atoms: _286  and  _287
REMARK  113  A    between atoms: _290  and  _291
REMARK  114  A    between atoms: _296  and  _298
REMARK  115  A    between atoms: _298  and  _299
REMARK  116  A    between atoms: _298  and  _301
REMARK  117  A    between atoms: _301  and  _302
REMARK  118  A    between atoms: _302  and  _303
REMARK  119  A    between atoms: _305  and  _307
REMARK  120  A    between atoms: _307  and  _308
REMARK  121  A    between atoms: _311  and  _313
REMARK  122  A    between atoms: _313  and  _314
REMARK  123  A    between atoms: _313  and  _316
REMARK  124  A    between atoms: _316  and  _317
REMARK  125  A    between atoms: _320  and  _322
REMARK  126  A    between atoms: _322  and  _323
REMARK  127  A    between atoms: _325  and  _327
REMARK  128  A    between atoms: _327  and  _328
REMARK  129  A    between atoms: _327  and  _330
REMARK  130  A    between atoms: _330  and  _331
REMARK  131  A    between atoms: _336  and  _338
REMARK  132  A    between atoms: _338  and  _339
REMARK  133  A    between atoms: _338  and  _341
REMARK  134  A    between atoms: _341  and  _342
REMARK  135  A    between atoms: _345  and  _347
REMARK  136  A    between atoms: _347  and  _348
REMARK  137  A    between atoms: _347  and  _350
REMARK  138  A    between atoms: _350  and  _351
REMARK  139  A    between atoms: _356  and  _357
REMARK  140  A    between atoms: _359  and  _361
REMARK  141  A    between atoms: _361  and  _362
REMARK  142  A    between atoms: _361  and  _364
REMARK  143  A    between atoms: _364  and  _365
REMARK  144  A    between atoms: _368  and  _370
REMARK  145  A    between atoms: _370  and  _371
REMARK  146  A    between atoms: _370  and  _373
REMARK  147  A    between atoms: _373  and  _374
REMARK  148  A    between atoms: _379  and  _380
REMARK  149  A    between atoms: _383  and  _384
REMARK  150  A    between atoms: _389  and  _391
REMARK  151  A    between atoms: _391  and  _392
REMARK  152  A    between atoms: _391  and  _394
REMARK  153  A    between atoms: _394  and  _395
REMARK  154  A    between atoms: _400  and  _401
REMARK  155  A    between atoms: _403  and  _405
REMARK  156  A    between atoms: _405  and  _406
REMARK  157  A    between atoms: _405  and  _408
REMARK  158  A    between atoms: _408  and  _409
REMARK  159  A    between atoms: _409  and  _410
REMARK  160  A    between atoms: _412  and  _414
REMARK  161  A    between atoms: _414  and  _415
REMARK  162  A    between atoms: _414  and  _417
REMARK  163  A    between atoms: _417  and  _418
REMARK  164  A    between atoms: _423  and  _424
REMARK  165  A    between atoms: _426  and  _428
REMARK  166  A    between atoms: _428  and  _429
REMARK  167  A    between atoms: _428  and  _431
REMARK  168  A    between atoms: _431  and  _432
REMARK  169  A    between atoms: _435  and  _437
REMARK  170  A    between atoms: _437  and  _438
REMARK  171  A    between atoms: _441  and  _443
REMARK  172  A    between atoms: _443  and  _444
REMARK  173  A    between atoms: _446  and  _448
REMARK  174  A    between atoms: _448  and  _449
REMARK  175  A    between atoms: _448  and  _451
REMARK  176  A    between atoms: _451  and  _452
REMARK  177  A    between atoms: _457  and  _458
REMARK  178  A    between atoms: _460  and  _462
REMARK  179  A    between atoms: _462  and  _463
REMARK  180  A    between atoms: _462  and  _465
REMARK  181  A    between atoms: _465  and  _466
REMARK  182  A    between atoms: _471  and  _473
REMARK  183  A    between atoms: _473  and  _474
REMARK  184  A    between atoms: _473  and  _476
REMARK  185  A    between atoms: _478  and  _480
REMARK  186  A    between atoms: _480  and  _481
REMARK  187  A    between atoms: _480  and  _483
REMARK  188  A    between atoms: _483  and  _484
REMARK  189  A    between atoms: _484  and  _485
REMARK  190  A    between atoms: _485  and  _486
REMARK  191  A    between atoms: _495  and  _497
REMARK  192  A    between atoms: _497  and  _498
REMARK  193  A    between atoms: _501  and  _503
REMARK  194  A    between atoms: _503  and  _504
REMARK  195  A    between atoms: _507  and  _509
REMARK  196  A    between atoms: _509  and  _510
REMARK  197  A    between atoms: _509  and  _512
REMARK  198  A    between atoms: _512  and  _513
REMARK  199  A    between atoms: _523  and  _525
REMARK  200  A    between atoms: _525  and  _526
REMARK  201  A    between atoms: _525  and  _528
REMARK  202  A    between atoms: _528  and  _529
REMARK  203  A    between atoms: _532  and  _534
REMARK  204  A    between atoms: _534  and  _535
REMARK  205  A    between atoms: _534  and  _537
REMARK  206  A    between atoms: _537  and  _538
REMARK  207  A    between atoms: _538  and  _539
REMARK  208  A    between atoms: _542  and  _544
REMARK  209  A    between atoms: _544  and  _545
REMARK  210  A    between atoms: _544  and  _547
REMARK  211  A    between atoms: _547  and  _548
REMARK  212  A    between atoms: _551  and  _553
REMARK  213  A    between atoms: _553  and  _554
REMARK  214  A    between atoms: _553  and  _556
REMARK  215  A    between atoms: _556  and  _557
REMARK  216  A    between atoms: _557  and  _558
REMARK  217  A    between atoms: _561  and  _563
REMARK  218  A    between atoms: _563  and  _564
REMARK  219  A    between atoms: _563  and  _566
REMARK  220  A    between atoms: _566  and  _567
REMARK  221  A    between atoms: _573  and  _575
REMARK  222  A    between atoms: _575  and  _576
REMARK  223  A    between atoms: _575  and  _578
REMARK  224  A    between atoms: _578  and  _579
REMARK  225  A    between atoms: _579  and  _580
REMARK  226  A    between atoms: _583  and  _585
REMARK  227  A    between atoms: _585  and  _586
REMARK  228  A    between atoms: _585  and  _588
REMARK  229  A    between atoms: _591  and  _593
REMARK  230  A    between atoms: _593  and  _594
REMARK  231  A    between atoms: _593  and  _596
REMARK                            x       y       z     vdW  Elec       q    Type
REMARK                         _______ _______ _______ _____ _____    ______ ____
ROOT
ATOM      1  CA  PHE A   2      19.662  -1.002   8.292  0.00  0.00    +0.141 C 
ENDROOT
BRANCH   1   4
ATOM      2  C   ALA A   1      21.703  -0.571   9.556  0.00  0.00    +0.238 C 
ATOM      3  O   ALA A   1      21.726  -1.717  10.013  0.00  0.00    -0.274 OA
ATOM      4  N   PHE A   2      20.739  -0.133   8.740  0.00  0.00    -0.298 N 
ATOM      5  H   PHE A   2      20.760   0.855   8.417  0.00  0.00    +0.150 HD
BRANCH   2   6
ATOM      6  CA  ALA A   1      22.815   0.399   9.887  0.00  0.00    +0.145 C 
ATOM      7  CB  ALA A   1      22.437   1.284  11.062  0.00  0.00    +0.028 C 
BRANCH   6   8
ATOM      8  N   ALA A   1      23.253   1.201   8.729  0.00  0.00    -0.238 NA
ATOM      9  H   ALA A   1      23.144   2.235   8.741  0.00  0.00    +0.142 HD
ENDBRANCH   6   8
ENDBRANCH   2   6
ENDBRANCH   1   4
BRANCH   1  10
ATOM     10  C   PHE A   2      20.225  -2.140   7.447  0.00  0.00    +0.227 C 
ATOM     11  O   PHE A   2      19.832  -3.276   7.595  0.00  0.00    -0.286 OA
ENDBRANCH   1  10
BRANCH   1  12
ATOM     12  CB  PHE A   2      18.601  -0.227   7.499  0.00  0.00    +0.054 C 
BRANCH  12  13
ATOM     13  CG  PHE A   2      17.519  -1.116   6.960  0.00  0.00    -0.020 A 
ATOM     14  CD2 PHE A   2      16.409  -1.451   7.747  0.00  0.00    -0.004 A 
ATOM     15  CE2 PHE A   2      15.433  -2.304   7.242  0.00  0.00    -0.000 A 
ATOM     16  CZ  PHE A   2      15.578  -2.828   5.975  0.00  0.00    -0.000 A 
ATOM     17  CE1 PHE A   2      16.665  -2.515   5.195  0.00  0.00    -0.000 A 
ATOM     18  CD1 PHE A   2      17.624  -1.651   5.685  0.00  0.00    -0.004 A 
ENDBRANCH  12  13
ENDBRANCH   1  12
TORSDOF 6
REMARK  Name = ../refined-set-2016/4x5z/4x5z_pocket.pdb
REMARK  231 active torsions:
REMARK  status: ('A' for Active; 'I' for Inactive)
REMARK    1  A    between atoms: _1  and  _3
REMARK    2  A    between atoms: _3  and  _4
REMARK    3  A    between atoms: _3  and  _6
REMARK    4  A    between atoms: _6  and  _7
REMARK    5  A    between atoms: _10  and  _12
REMARK    6  A    between atoms: _12  and  _13
REMARK    7  A    between atoms: _12  and  _15
REMARK    8  A    between atoms: _15  and  _16
REMARK    9  A    between atoms: _18  and  _20
REMARK   10  A    between atoms: _20  and  _21
REMARK   11  A    between atoms: _20  and  _23
REMARK   12  A    between atoms: _23  and  _24
REMARK   13  A    between atoms: _26  and  _28
REMARK   14  A    between atoms: _28  and  _29
REMARK   15  A    between atoms: _31  and  _33
REMARK   16  A    between atoms: _33  and  _34
REMARK   17  A    between atoms: _37  and  _39
REMARK   18  A    between atoms: _39  and  _40
REMARK   19  A    between atoms: _39  and  _42
REMARK   20  A    between atoms: _42  and  _43
REMARK   21  A    between atoms: _49  and  _51
REMARK   22  A    between atoms: _51  and  _52
REMARK   23  A    between atoms: _51  and  _54
REMARK   24  A    between atoms: _54  and  _55
REMARK   25  A    between atoms: _58  and  _60
REMARK   26  A    between atoms: _60  and  _61
REMARK   27  A    between atoms: _64  and  _66
REMARK   28  A    between atoms: _66  and  _67
REMARK   29  A    between atoms: _66  and  _69
REMARK   30  A    between atoms: _69  and  _70
REMARK   31  A    between atoms: _73  and  _75
REMARK   32  A    between atoms: _75  and  _76
REMARK   33  A    between atoms: _75  and  _78
REMARK   34  A    between atoms: _78  and  _79
REMARK   35  A    between atoms: _81  and  _83
REMARK   36  A    between atoms: _83  and  _84
REMARK   37  A    between atoms: _83  and  _86
REMARK   38  A    between atoms: _86  and  _87
REMARK   39  A    between atoms: _87  and  _88
REMARK   40  A    between atoms: _91  and  _93
REMARK   41  A    between atoms: _93  and  _94
REMARK   42  A    between atoms: _93  and  _96
REMARK   43  A    between atoms: _96  and  _97
REMARK   44  A    between atoms: _100  and  _102
REMARK   45  A    between atoms: _102  and  _103
REMARK   46  A    between atoms: _102  and  _105
REMARK   47  A    between atoms: _105  and  _106
REMARK   48  A    between atoms: _111  and  _113
REMARK   49  A    between atoms: _113  and  _114
REMARK   50  A    between atoms: _117  and  _119
REMARK   51  A    between atoms: _119  and  _120
REMARK   52  A    between atoms: _119  and  _122
REMARK   53  A    between atoms: _122  and  _123
REMARK   54  A    between atoms: _133  and  _135
REMARK   55  A    between atoms: _135  and  _136
REMARK   56  A    between atoms: _135  and  _138
REMARK   57  A    between atoms: _138  and  _139
REMARK   58  A    between atoms: _142  and  _144
REMARK   59  A    between atoms: _144  and  _145
REMARK   60  A    between atoms: _144  and  _147
REMARK   61  A    between atoms: _147  and  _148
REMARK   62  A    between atoms: _158  and  _160
REMARK   63  A    between atoms: _160  and  _161
REMARK   64  A    between atoms: _160  and  _163
REMARK   65  A    between atoms: _163  and  _164
REMARK   66  A    between atoms: _169  and  _171
REMARK   67  A    between atoms: _171  and  _172
REMARK   68  A    between atoms: _174  and  _176
REMARK   69  A    between atoms: _176  and  _177
REMARK   70  A    between atoms: _176  and  _179
REMARK   71  A    between atoms: _179  and  _180
REMARK   72  A    between atoms: _190  and  _192
REMARK   73  A    between atoms: _192  and  _193
REMARK   74  A    between atoms: _192  and  _195
REMARK   75  A    between atoms: _195  and  _196
REMARK   76  A    between atoms: _199  and  _201
REMARK   77  A    between atoms: _201  and  _202
REMARK   78  A    between atoms: _201  and  _204
REMARK   79  A    between atoms: _204  and  _205
REMARK   80  A    between atoms: _205  and  _206
REMARK   81  A    between atoms: _208  and  _210
REMARK   82  A    between atoms: _210  and  _211
REMARK   83  A    between atoms: _210  and  _213
REMARK   84  A    between atoms: _215  and  _217
REMARK   85  A    between atoms: _217  and  _218
REMARK   86  A    between atoms: _221  and  _223
REMARK   87  A    between atoms: _223  and  _224
REMARK   88  A    between atoms: _223  and  _226
REMARK   89  A    between atoms: _226  and  _227
REMARK   90  A    between atoms: _233  and  _235
REMARK   91  A    between atoms: _235  and  _236
REMARK   92  A    between atoms: _235  and  _238
REMARK   93  A    between atoms: _238  and  _239
REMARK   94  A    between atoms: _239  and  _240
REMARK   95  A    between atoms: _242  and  _244
REMARK   96  A    between atoms: _244  and  _245
REMARK   97  A    between atoms: _244  and  _247
REMARK   98  A    between atoms: _250  and  _252
REMARK   99  A    between atoms: _252  and  _253
REMARK  100  A    between atoms: _252  and  _255
REMARK  101  A    between atoms: _257  and  _259
REMARK  102  A    between atoms: _259  and  _260
REMARK  103  A    between atoms: _263  and  _265
REMARK  104  A    between atoms: _265  and  _266
REMARK  105  A    between atoms: _265  and  _268
REMARK  106  A    between atoms: _268  and  _269
REMARK  107  A    between atoms: _269  and  _270
REMARK  108  A    between atoms: _275  and  _277
REMARK  109  A    between atoms: _277  and  _278
REMARK  110  A    between atoms: _277  and  _280
REMARK  111  A    between atoms: _280  and  _281
REMARK  112  A    between atoms: _286  and  _287
REMARK  113  A    between atoms: _290  and  _291
REMARK  114  A    between atoms: _296  and  _298
REMARK  115  A    between atoms: _298  and  _299
REMARK  116  A    between atoms: _298  and  _301
REMARK  117  A    between atoms: _301  and  _302
REMARK  118  A    between atoms: _302  and  _303
REMARK  119  A    between atoms: _305  and  _307
REMARK  120  A    between atoms: _307  and  _308
REMARK  121  A    between atoms: _311  and  _313
REMARK  122  A    between atoms: _313  and  _314
REMARK  123  A    between atoms: _313  and  _316
REMARK  124  A    between atoms: _316  and  _317
REMARK  125  A    between atoms: _320  and  _322
REMARK  126  A    between atoms: _322  and  _323
REMARK  127  A    between atoms: _325  and  _327
REMARK  128  A    between atoms: _327  and  _328
REMARK  129  A    between atoms: _327  and  _330
REMARK  130  A    between atoms: _330  and  _331
REMARK  131  A    between atoms: _336  and  _338
REMARK  132  A    between atoms: _338  and  _339
REMARK  133  A    between atoms: _338  and  _341
REMARK  134  A    between atoms: _341  and  _342
REMARK  135  A    between atoms: _345  and  _347
REMARK  136  A    between atoms: _347  and  _348
REMARK  137  A    between atoms: _347  and  _350
REMARK  138  A    between atoms: _350  and  _351
REMARK  139  A    between atoms: _356  and  _357
REMARK  140  A    between atoms: _359  and  _361
REMARK  141  A    between atoms: _361  and  _362
REMARK  142  A    between atoms: _361  and  _364
REMARK  143  A    between atoms: _364  and  _365
REMARK  144  A    between atoms: _368  and  _370
REMARK  145  A    between atoms: _370  and  _371
REMARK  146  A    between atoms: _370  and  _373
REMARK  147  A    between atoms: _373  and  _374
REMARK  148  A    between atoms: _379  and  _380
REMARK  149  A    between atoms: _383  and  _384
REMARK  150  A    between atoms: _389  and  _391
REMARK  151  A    between atoms: _391  and  _392
REMARK  152  A    between atoms: _391  and  _394
REMARK  153  A    between atoms: _394  and  _395
REMARK  154  A    between atoms: _400  and  _401
REMARK  155  A    between atoms: _403  and  _405
REMARK  156  A    between atoms: _405  and  _406
REMARK  157  A    between atoms: _405  and  _408
REMARK  158  A    between atoms: _408  and  _409
REMARK  159  A    between atoms: _409  and  _410
REMARK  160  A    between atoms: _412  and  _414
REMARK  161  A    between atoms: _414  and  _415
REMARK  162  A    between atoms: _414  and  _417
REMARK  163  A    between atoms: _417  and  _418
REMARK  164  A    between atoms: _423  and  _424
REMARK  165  A    between atoms: _426  and  _428
REMARK  166  A    between atoms: _428  and  _429
REMARK  167  A    between atoms: _428  and  _431
REMARK  168  A    between atoms: _431  and  _432
REMARK  169  A    between atoms: _435  and  _437
REMARK  170  A    between atoms: _437  and  _438
REMARK  171  A    between atoms: _441  and  _443
REMARK  172  A    between atoms: _443  and  _444
REMARK  173  A    between atoms: _446  and  _448
REMARK  174  A    between atoms: _448  and  _449
REMARK  175  A    between atoms: _448  and  _451
REMARK  176  A    between atoms: _451  and  _452
REMARK  177  A    between atoms: _457  and  _458
REMARK  178  A    between atoms: _460  and  _462
REMARK  179  A    between atoms: _462  and  _463
REMARK  180  A    between atoms: _462  and  _465
REMARK  181  A    between atoms: _465  and  _466
REMARK  182  A    between atoms: _471  and  _473
REMARK  183  A    between atoms: _473  and  _474
REMARK  184  A    between atoms: _473  and  _476
REMARK  185  A    between atoms: _478  and  _480
REMARK  186  A    between atoms: _480  and  _481
REMARK  187  A    between atoms: _480  and  _483
REMARK  188  A    between atoms: _483  and  _484
REMARK  189  A    between atoms: _484  and  _485
REMARK  190  A    between atoms: _485  and  _486
REMARK  191  A    between atoms: _495  and  _497
REMARK  192  A    between atoms: _497  and  _498
REMARK  193  A    between atoms: _501  and  _503
REMARK  194  A    between atoms: _503  and  _504
REMARK  195  A    between atoms: _507  and  _509
REMARK  196  A    between atoms: _509  and  _510
REMARK  197  A    between atoms: _509  and  _512
REMARK  198  A    between atoms: _512  and  _513
REMARK  199  A    between atoms: _523  and  _525
REMARK  200  A    between atoms: _525  and  _526
REMARK  201  A    between atoms: _525  and  _528
REMARK  202  A    between atoms: _528  and  _529
REMARK  203  A    between atoms: _532  and  _534
REMARK  204  A    between atoms: _534  and  _535
REMARK  205  A    between atoms: _534  and  _537
REMARK  206  A    between atoms: _537  and  _538
REMARK  207  A    between atoms: _538  and  _539
REMARK  208  A    between atoms: _542  and  _544
REMARK  209  A    between atoms: _544  and  _545
REMARK  210  A    between atoms: _544  and  _547
REMARK  211  A    between atoms: _547  and  _548
REMARK  212  A    between atoms: _551  and  _553
REMARK  213  A    between atoms: _553  and  _554
REMARK  214  A    between atoms: _553  and  _556
REMARK  215  A    between atoms: _556  and  _557
REMARK  216  A    between atoms: _557  and  _558
REMARK  217  A    between atoms: _561  and  _563
REMARK  218  A    between atoms: _563  and  _564
REMARK  219  A    between atoms: _563  and  _566
REMARK  220  A    between atoms: _566  and  _567
REMARK  221  A    between atoms: _573  and  _575
REMARK  222  A    between atoms: _575  and  _576
REMARK  223  A    between atoms: _575  and  _578
REMARK  224  A    between atoms: _578  and  _579
REMARK  225  A    between atoms: _579  and  _580
REMARK  226  A    between atoms: _583  and  _585
REMARK  227  A    between atoms: _585  and  _586
REMARK  228  A    between atoms: _585  and  _588
REMARK  229  A    between atoms: _591  and  _593
REMARK  230  A    between atoms: _593  and  _594
REMARK  231  A    between atoms: _593  and  _596
REMARK                            x       y       z     vdW  Elec       q    Type
REMARK                         _______ _______ _______ _____ _____    ______ ____
ROOT
ATOM      1  C   GLU A   5      16.845  11.127  16.083  0.00  0.00    +0.241 C 
ATOM      2  N   ASP A   6      18.157  10.862  16.153  0.00  0.00    -0.297 N 
ATOM      3  H   ASP A   6      18.532  10.322  16.958  0.00  0.00    +0.150 HD
ATOM      4  O   GLU A   5      16.365  11.720  15.143  0.00  0.00    -0.273 OA
ENDROOT
BRANCH   2   5
ATOM      5  CA  ASP A   6      19.068  11.329  15.101  0.00  0.00    +0.160 C 
BRANCH   5   6
ATOM      6  C   ASP A   6      20.212  10.381  14.777  0.00  0.00    +0.241 C 
ATOM      7  N   HIS A   7      20.146   9.111  15.192  0.00  0.00    -0.297 N 
ATOM      8  H   HIS A   7      19.313   8.805  15.735  0.00  0.00    +0.150 HD
ATOM      9  O   ASP A   6      21.122  10.817  14.136  0.00  0.00    -0.273 OA
BRANCH   7  10
ATOM     10  CA  HIS A   7      21.206   8.131  14.910  0.00  0.00    +0.155 C 
BRANCH  10  11
ATOM     11  C   HIS A   7      20.682   6.724  14.955  0.00  0.00    +0.241 C 
ATOM     12  O   HIS A   7      19.579   6.454  15.481  0.00  0.00    -0.273 OA
ATOM     13  N   ALA A   8      21.496   5.789  14.431  0.00  0.00    -0.297 N 
ATOM     14  H   ALA A   8      22.409   6.073  14.022  0.00  0.00    +0.150 HD
BRANCH  13  15
ATOM     15  CA  ALA A   8      21.115   4.398  14.430  0.00  0.00    +0.149 C 
ATOM     16  CB  ALA A   8      20.496   4.050  13.066  0.00  0.00    +0.031 C 
BRANCH  15  17
ATOM     17  C   ALA A   8      22.348   3.540  14.645  0.00  0.00    +0.241 C 
ATOM     18  N   TRP A   9      22.131   2.379  15.268  0.00  0.00    -0.298 N 
ATOM     19  H   TRP A   9      21.162   2.156  15.572  0.00  0.00    +0.150 HD
ATOM     20  O   ALA A   8      23.443   3.916  14.229  0.00  0.00    -0.273 OA
BRANCH  18  21
ATOM     21  CA  TRP A   9      23.187   1.405  15.544  0.00  0.00    +0.141 C 
BRANCH  21  22
ATOM     22  C   TRP A   9      22.516   0.051  15.677  0.00  0.00    +0.227 C 
ATOM     23  O   TRP A   9      21.346  -0.069  15.292  0.00  0.00    -0.286 OA
ENDBRANCH  21  22
BRANCH  21  24
ATOM     24  CB  TRP A   9      24.018   1.838  16.771  0.00  0.00    +0.056 C 
BRANCH  24  25
ATOM     25  CG  TRP A   9      23.286   1.977  18.081  0.00  0.00    -0.002 A 
ATOM     26  CD1 TRP A   9      23.175   1.006  19.090  0.00  0.00    +0.068 A 
ATOM     27  NE1 TRP A   9      22.435   1.510  20.152  0.00  0.00    -0.352 N 
ATOM     28  HE1 TRP A   9      22.209   0.998  21.029  0.00  0.00    +0.166 HD
ATOM     29  CE2 TRP A   9      22.049   2.797  19.854  0.00  0.00    +0.056 A 
ATOM     30  CZ2 TRP A   9      21.309   3.710  20.615  0.00  0.00    +0.017 A 
ATOM     31  CH2 TRP A   9      21.037   4.928  20.067  0.00  0.00    +0.001 A 
ATOM     32  CZ3 TRP A   9      21.535   5.303  18.800  0.00  0.00    +0.000 A 
ATOM     33  CE3 TRP A   9      22.312   4.393  18.025  0.00  0.00    +0.001 A 
ATOM     34  CD2 TRP A   9      22.555   3.115  18.546  0.00  0.00    +0.013 A 
ENDBRANCH  24  25
ENDBRANCH  21  24
ENDBRANCH  18  21
ENDBRANCH  15  17
ENDBRANCH  13  15
ENDBRANCH  10  11
BRANCH  10  35
ATOM     35  CB  HIS A   7      22.337   8.311  15.931  0.00  0.00    +0.076 C 
BRANCH  35  36
ATOM     36  CG  HIS A   7      23.571   7.508  15.684  0.00  0.00    +0.082 A 
ATOM     37  CD2 HIS A   7      24.415   6.910  16.565  0.00  0.00    +0.115 A 
ATOM     38  NE2 HIS A   7      25.421   6.351  15.842  0.00  0.00    -0.221 NA
ATOM     39  CE1 HIS A   7      25.242   6.629  14.564  0.00  0.00    +0.199 A 
ATOM     40  ND1 HIS A   7      24.124   7.338  14.436  0.00  0.00    -0.227 NA
ENDBRANCH  35  36
ENDBRANCH  10  35
ENDBRANCH   7  10
ENDBRANCH   5   6
BRANCH   5  41
ATOM     41  CB  ASP A   6      19.714  12.680  15.491  0.00  0.00    +0.143 C 
BRANCH  41  42
ATOM     42  CG  ASP A   6      20.392  13.413  14.304  0.00  0.00    +0.367 C 
ATOM     43  OD2 ASP A   6      21.598  13.875  14.431  0.00  0.00    -0.246 OA
ATOM     44  OD1 ASP A   6      19.758  13.523  13.245  0.00  0.00    -0.246 OA
ENDBRANCH  41  42
ENDBRANCH   5  41
ENDBRANCH   2   5
BRANCH   1  45
ATOM     45  CA  GLU A   5      15.940  10.559  17.141  0.00  0.00    +0.149 C 
BRANCH  45  47
ATOM     46  C   SER A   4      16.752   8.328  17.588  0.00  0.00    +0.243 C 
ATOM     47  N   GLU A   5      16.644   9.592  17.966  0.00  0.00    -0.297 N 
ATOM     48  H   GLU A   5      17.069   9.897  18.865  0.00  0.00    +0.150 HD
ATOM     49  O   SER A   4      16.350   7.940  16.509  0.00  0.00    -0.273 OA
BRANCH  46  50
ATOM     50  CA  SER A   4      17.512   7.407  18.534  0.00  0.00    +0.178 C 
BRANCH  50  53
ATOM     51  C   LEU A   3      17.123   5.085  17.916  0.00  0.00    +0.241 C 
ATOM     52  O   LEU A   3      16.318   4.902  18.824  0.00  0.00    -0.273 OA
ATOM     53  N   SER A   4      17.869   6.179  17.811  0.00  0.00    -0.295 N 
ATOM     54  H   SER A   4      18.717   6.166  17.209  0.00  0.00    +0.150 HD
BRANCH  51  55
ATOM     55  CA  LEU A   3      17.260   4.049  16.812  0.00  0.00    +0.149 C 
BRANCH  55  57
ATOM     56  C   ALA A   2      18.480   1.942  16.890  0.00  0.00    +0.241 C 
ATOM     57  N   LEU A   3      17.531   2.747  17.360  0.00  0.00    -0.297 N 
ATOM     58  H   LEU A   3      16.957   2.419  18.163  0.00  0.00    +0.150 HD
ATOM     59  O   ALA A   2      19.301   2.276  16.048  0.00  0.00    -0.273 OA
BRANCH  56  60
ATOM     60  CA  ALA A   2      18.513   0.527  17.501  0.00  0.00    +0.149 C 
ATOM     61  CB  ALA A   2      19.597   0.432  18.522  0.00  0.00    +0.031 C 
BRANCH  60  64
ATOM     62  C   LEU A   1      17.889  -1.335  16.029  0.00  0.00    +0.238 C 
ATOM     63  O   LEU A   1      16.852  -1.614  16.638  0.00  0.00    -0.274 OA
ATOM     64  N   ALA A   2      18.750  -0.416  16.424  0.00  0.00    -0.297 N 
ATOM     65  H   ALA A   2      19.663  -0.364  15.928  0.00  0.00    +0.150 HD
BRANCH  62  66
ATOM     66  CA  LEU A   1      18.266  -2.112  14.739  0.00  0.00    +0.145 C 
BRANCH  66  67
ATOM     67  N   LEU A   1      18.030  -3.499  14.947  0.00  0.00    -0.238 NA
ATOM     68  H   LEU A   1      17.176  -3.930  14.540  0.00  0.00    +0.142 HD
ENDBRANCH  66  67
BRANCH  66  69
ATOM     69  CB  LEU A   1      17.329  -1.639  13.596  0.00  0.00    +0.026 C 
BRANCH  69  70
ATOM     70  CG  LEU A   1      17.565  -0.236  13.101  0.00  0.00    +0.002 C 
ATOM     71  CD2 LEU A   1      18.938  -0.057  12.518  0.00  0.00    +0.000 C 
ATOM     72  CD1 LEU A   1      16.539   0.098  12.010  0.00  0.00    +0.000 C 
ENDBRANCH  69  70
ENDBRANCH  66  69
ENDBRANCH  62  66
ENDBRANCH  60  64
ENDBRANCH  56  60
ENDBRANCH  55  57
BRANCH  55  73
ATOM     73  CB  LEU A   3      15.950   4.008  16.010  0.00  0.00    +0.029 C 
BRANCH  73  74
ATOM     74  CG  LEU A   3      15.936   3.053  14.816  0.00  0.00    +0.002 C 
ATOM     75  CD2 LEU A   3      14.490   2.921  14.274  0.00  0.00    +0.000 C 
ATOM     76  CD1 LEU A   3      16.888   3.495  13.718  0.00  0.00    +0.000 C 
ENDBRANCH  73  74
ENDBRANCH  55  73
ENDBRANCH  51  55
ENDBRANCH  50  53
BRANCH  50  77
ATOM     77  CB  SER A   4      18.735   8.081  19.133  0.00  0.00    +0.166 C 
BRANCH  77  78
ATOM     78  OG  SER A   4      19.588   8.690  18.182  0.00  0.00    -0.380 OA
ATOM     79  H   SER A   4      20.357   9.105  18.648  0.00  0.00    +0.211 HD
ENDBRANCH  77  78
ENDBRANCH  50  77
ENDBRANCH  46  50
ENDBRANCH  45  47
BRANCH  45  80
ATOM     80  CB  GLU A   5      15.338  11.623  18.037  0.00  0.00    +0.041 C 
BRANCH  80  81
ATOM     81  CG  GLU A   5      14.105  11.133  18.728  0.00  0.00    +0.116 C 
BRANCH  81  82
ATOM     82  CD  GLU A   5      13.340  12.188  19.467  0.00  0.00    +0.365 C 
ATOM     83  OE2 GLU A   5      13.961  12.970  20.239  0.00  0.00    -0.246 OA
ATOM     84  OE1 GLU A   5      12.088  12.126  19.367  0.00  0.00    -0.246 OA
ENDBRANCH  81  82
ENDBRANCH  80  81
ENDBRANCH  45  80
ENDBRANCH   1  45
TORSDOF 33
REMARK  Name = ../refined-set-2016/4x5z/4x5z_pocket.pdb
REMARK  231 active torsions:
REMARK  status: ('A' for Active; 'I' for Inactive)
REMARK    1  A    between atoms: _1  and  _3
REMARK    2  A    between atoms: _3  and  _4
REMARK    3  A    between atoms: _3  and  _6
REMARK    4  A    between atoms: _6  and  _7
REMARK    5  A    between atoms: _10  and  _12
REMARK    6  A    between atoms: _12  and  _13
REMARK    7  A    between atoms: _12  and  _15
REMARK    8  A    between atoms: _15  and  _16
REMARK    9  A    between atoms: _18  and  _20
REMARK   10  A    between atoms: _20  and  _21
REMARK   11  A    between atoms: _20  and  _23
REMARK   12  A    between atoms: _23  and  _24
REMARK   13  A    between atoms: _26  and  _28
REMARK   14  A    between atoms: _28  and  _29
REMARK   15  A    between atoms: _31  and  _33
REMARK   16  A    between atoms: _33  and  _34
REMARK   17  A    between atoms: _37  and  _39
REMARK   18  A    between atoms: _39  and  _40
REMARK   19  A    between atoms: _39  and  _42
REMARK   20  A    between atoms: _42  and  _43
REMARK   21  A    between atoms: _49  and  _51
REMARK   22  A    between atoms: _51  and  _52
REMARK   23  A    between atoms: _51  and  _54
REMARK   24  A    between atoms: _54  and  _55
REMARK   25  A    between atoms: _58  and  _60
REMARK   26  A    between atoms: _60  and  _61
REMARK   27  A    between atoms: _64  and  _66
REMARK   28  A    between atoms: _66  and  _67
REMARK   29  A    between atoms: _66  and  _69
REMARK   30  A    between atoms: _69  and  _70
REMARK   31  A    between atoms: _73  and  _75
REMARK   32  A    between atoms: _75  and  _76
REMARK   33  A    between atoms: _75  and  _78
REMARK   34  A    between atoms: _78  and  _79
REMARK   35  A    between atoms: _81  and  _83
REMARK   36  A    between atoms: _83  and  _84
REMARK   37  A    between atoms: _83  and  _86
REMARK   38  A    between atoms: _86  and  _87
REMARK   39  A    between atoms: _87  and  _88
REMARK   40  A    between atoms: _91  and  _93
REMARK   41  A    between atoms: _93  and  _94
REMARK   42  A    between atoms: _93  and  _96
REMARK   43  A    between atoms: _96  and  _97
REMARK   44  A    between atoms: _100  and  _102
REMARK   45  A    between atoms: _102  and  _103
REMARK   46  A    between atoms: _102  and  _105
REMARK   47  A    between atoms: _105  and  _106
REMARK   48  A    between atoms: _111  and  _113
REMARK   49  A    between atoms: _113  and  _114
REMARK   50  A    between atoms: _117  and  _119
REMARK   51  A    between atoms: _119  and  _120
REMARK   52  A    between atoms: _119  and  _122
REMARK   53  A    between atoms: _122  and  _123
REMARK   54  A    between atoms: _133  and  _135
REMARK   55  A    between atoms: _135  and  _136
REMARK   56  A    between atoms: _135  and  _138
REMARK   57  A    between atoms: _138  and  _139
REMARK   58  A    between atoms: _142  and  _144
REMARK   59  A    between atoms: _144  and  _145
REMARK   60  A    between atoms: _144  and  _147
REMARK   61  A    between atoms: _147  and  _148
REMARK   62  A    between atoms: _158  and  _160
REMARK   63  A    between atoms: _160  and  _161
REMARK   64  A    between atoms: _160  and  _163
REMARK   65  A    between atoms: _163  and  _164
REMARK   66  A    between atoms: _169  and  _171
REMARK   67  A    between atoms: _171  and  _172
REMARK   68  A    between atoms: _174  and  _176
REMARK   69  A    between atoms: _176  and  _177
REMARK   70  A    between atoms: _176  and  _179
REMARK   71  A    between atoms: _179  and  _180
REMARK   72  A    between atoms: _190  and  _192
REMARK   73  A    between atoms: _192  and  _193
REMARK   74  A    between atoms: _192  and  _195
REMARK   75  A    between atoms: _195  and  _196
REMARK   76  A    between atoms: _199  and  _201
REMARK   77  A    between atoms: _201  and  _202
REMARK   78  A    between atoms: _201  and  _204
REMARK   79  A    between atoms: _204  and  _205
REMARK   80  A    between atoms: _205  and  _206
REMARK   81  A    between atoms: _208  and  _210
REMARK   82  A    between atoms: _210  and  _211
REMARK   83  A    between atoms: _210  and  _213
REMARK   84  A    between atoms: _215  and  _217
REMARK   85  A    between atoms: _217  and  _218
REMARK   86  A    between atoms: _221  and  _223
REMARK   87  A    between atoms: _223  and  _224
REMARK   88  A    between atoms: _223  and  _226
REMARK   89  A    between atoms: _226  and  _227
REMARK   90  A    between atoms: _233  and  _235
REMARK   91  A    between atoms: _235  and  _236
REMARK   92  A    between atoms: _235  and  _238
REMARK   93  A    between atoms: _238  and  _239
REMARK   94  A    between atoms: _239  and  _240
REMARK   95  A    between atoms: _242  and  _244
REMARK   96  A    between atoms: _244  and  _245
REMARK   97  A    between atoms: _244  and  _247
REMARK   98  A    between atoms: _250  and  _252
REMARK   99  A    between atoms: _252  and  _253
REMARK  100  A    between atoms: _252  and  _255
REMARK  101  A    between atoms: _257  and  _259
REMARK  102  A    between atoms: _259  and  _260
REMARK  103  A    between atoms: _263  and  _265
REMARK  104  A    between atoms: _265  and  _266
REMARK  105  A    between atoms: _265  and  _268
REMARK  106  A    between atoms: _268  and  _269
REMARK  107  A    between atoms: _269  and  _270
REMARK  108  A    between atoms: _275  and  _277
REMARK  109  A    between atoms: _277  and  _278
REMARK  110  A    between atoms: _277  and  _280
REMARK  111  A    between atoms: _280  and  _281
REMARK  112  A    between atoms: _286  and  _287
REMARK  113  A    between atoms: _290  and  _291
REMARK  114  A    between atoms: _296  and  _298
REMARK  115  A    between atoms: _298  and  _299
REMARK  116  A    between atoms: _298  and  _301
REMARK  117  A    between atoms: _301  and  _302
REMARK  118  A    between atoms: _302  and  _303
REMARK  119  A    between atoms: _305  and  _307
REMARK  120  A    between atoms: _307  and  _308
REMARK  121  A    between atoms: _311  and  _313
REMARK  122  A    between atoms: _313  and  _314
REMARK  123  A    between atoms: _313  and  _316
REMARK  124  A    between atoms: _316  and  _317
REMARK  125  A    between atoms: _320  and  _322
REMARK  126  A    between atoms: _322  and  _323
REMARK  127  A    between atoms: _325  and  _327
REMARK  128  A    between atoms: _327  and  _328
REMARK  129  A    between atoms: _327  and  _330
REMARK  130  A    between atoms: _330  and  _331
REMARK  131  A    between atoms: _336  and  _338
REMARK  132  A    between atoms: _338  and  _339
REMARK  133  A    between atoms: _338  and  _341
REMARK  134  A    between atoms: _341  and  _342
REMARK  135  A    between atoms: _345  and  _347
REMARK  136  A    between atoms: _347  and  _348
REMARK  137  A    between atoms: _347  and  _350
REMARK  138  A    between atoms: _350  and  _351
REMARK  139  A    between atoms: _356  and  _357
REMARK  140  A    between atoms: _359  and  _361
REMARK  141  A    between atoms: _361  and  _362
REMARK  142  A    between atoms: _361  and  _364
REMARK  143  A    between atoms: _364  and  _365
REMARK  144  A    between atoms: _368  and  _370
REMARK  145  A    between atoms: _370  and  _371
REMARK  146  A    between atoms: _370  and  _373
REMARK  147  A    between atoms: _373  and  _374
REMARK  148  A    between atoms: _379  and  _380
REMARK  149  A    between atoms: _383  and  _384
REMARK  150  A    between atoms: _389  and  _391
REMARK  151  A    between atoms: _391  and  _392
REMARK  152  A    between atoms: _391  and  _394
REMARK  153  A    between atoms: _394  and  _395
REMARK  154  A    between atoms: _400  and  _401
REMARK  155  A    between atoms: _403  and  _405
REMARK  156  A    between atoms: _405  and  _406
REMARK  157  A    between atoms: _405  and  _408
REMARK  158  A    between atoms: _408  and  _409
REMARK  159  A    between atoms: _409  and  _410
REMARK  160  A    between atoms: _412  and  _414
REMARK  161  A    between atoms: _414  and  _415
REMARK  162  A    between atoms: _414  and  _417
REMARK  163  A    between atoms: _417  and  _418
REMARK  164  A    between atoms: _423  and  _424
REMARK  165  A    between atoms: _426  and  _428
REMARK  166  A    between atoms: _428  and  _429
REMARK  167  A    between atoms: _428  and  _431
REMARK  168  A    between atoms: _431  and  _432
REMARK  169  A    between atoms: _435  and  _437
REMARK  170  A    between atoms: _437  and  _438
REMARK  171  A    between atoms: _441  and  _443
REMARK  172  A    between atoms: _443  and  _444
REMARK  173  A    between atoms: _446  and  _448
REMARK  174  A    between atoms: _448  and  _449
REMARK  175  A    between atoms: _448  and  _451
REMARK  176  A    between atoms: _451  and  _452
REMARK  177  A    between atoms: _457  and  _458
REMARK  178  A    between atoms: _460  and  _462
REMARK  179  A    between atoms: _462  and  _463
REMARK  180  A    between atoms: _462  and  _465
REMARK  181  A    between atoms: _465  and  _466
REMARK  182  A    between atoms: _471  and  _473
REMARK  183  A    between atoms: _473  and  _474
REMARK  184  A    between atoms: _473  and  _476
REMARK  185  A    between atoms: _478  and  _480
REMARK  186  A    between atoms: _480  and  _481
REMARK  187  A    between atoms: _480  and  _483
REMARK  188  A    between atoms: _483  and  _484
REMARK  189  A    between atoms: _484  and  _485
REMARK  190  A    between atoms: _485  and  _486
REMARK  191  A    between atoms: _495  and  _497
REMARK  192  A    between atoms: _497  and  _498
REMARK  193  A    between atoms: _501  and  _503
REMARK  194  A    between atoms: _503  and  _504
REMARK  195  A    between atoms: _507  and  _509
REMARK  196  A    between atoms: _509  and  _510
REMARK  197  A    between atoms: _509  and  _512
REMARK  198  A    between atoms: _512  and  _513
REMARK  199  A    between atoms: _523  and  _525
REMARK  200  A    between atoms: _525  and  _526
REMARK  201  A    between atoms: _525  and  _528
REMARK  202  A    between atoms: _528  and  _529
REMARK  203  A    between atoms: _532  and  _534
REMARK  204  A    between atoms: _534  and  _535
REMARK  205  A    between atoms: _534  and  _537
REMARK  206  A    between atoms: _537  and  _538
REMARK  207  A    between atoms: _538  and  _539
REMARK  208  A    between atoms: _542  and  _544
REMARK  209  A    between atoms: _544  and  _545
REMARK  210  A    between atoms: _544  and  _547
REMARK  211  A    between atoms: _547  and  _548
REMARK  212  A    between atoms: _551  and  _553
REMARK  213  A    between atoms: _553  and  _554
REMARK  214  A    between atoms: _553  and  _556
REMARK  215  A    between atoms: _556  and  _557
REMARK  216  A    between atoms: _557  and  _558
REMARK  217  A    between atoms: _561  and  _563
REMARK  218  A    between atoms: _563  and  _564
REMARK  219  A    between atoms: _563  and  _566
REMARK  220  A    between atoms: _566  and  _567
REMARK  221  A    between atoms: _573  and  _575
REMARK  222  A    between atoms: _575  and  _576
REMARK  223  A    between atoms: _575  and  _578
REMARK  224  A    between atoms: _578  and  _579
REMARK  225  A    between atoms: _579  and  _580
REMARK  226  A    between atoms: _583  and  _585
REMARK  227  A    between atoms: _585  and  _586
REMARK  228  A    between atoms: _585  and  _588
REMARK  229  A    between atoms: _591  and  _593
REMARK  230  A    between atoms: _593  and  _594
REMARK  231  A    between atoms: _593  and  _596
REMARK                            x       y       z     vdW  Elec       q    Type
REMARK                         _______ _______ _______ _____ _____    ______ ____
ROOT
ATOM      1  CA  TRP A   2      28.872   7.210  10.999  0.00  0.00    +0.153 C 
ENDROOT
BRANCH   1   4
ATOM      2  C   THR A   1      28.332   4.861  11.404  0.00  0.00    +0.241 C 
ATOM      3  O   THR A   1      28.740   4.877  12.564  0.00  0.00    -0.274 OA
ATOM      4  N   TRP A   2      28.382   5.907  10.598  0.00  0.00    -0.297 N 
ATOM      5  H   TRP A   2      28.051   5.788   9.619  0.00  0.00    +0.150 HD
BRANCH   2   6
ATOM      6  CA  THR A   1      27.737   3.574  10.810  0.00  0.00    +0.172 C 
BRANCH   6   7
ATOM      7  N   THR A   1      27.733   2.567  11.829  0.00  0.00    -0.236 NA
ATOM      8  H   THR A   1      27.486   2.842  12.801  0.00  0.00    +0.142 HD
ENDBRANCH   6   7
BRANCH   6   9
ATOM      9  CB  THR A   1      26.309   3.768  10.237  0.00  0.00    +0.135 C 
ATOM     10  CG2 THR A   1      25.372   4.380  11.257  0.00  0.00    +0.034 C 
BRANCH   9  11
ATOM     11  OG1 THR A   1      26.357   4.631   9.100  0.00  0.00    -0.383 OA
ATOM     12  HG1 THR A   1      25.443   4.751   8.739  0.00  0.00    +0.210 HD
ENDBRANCH   9  11
ENDBRANCH   6   9
ENDBRANCH   2   6
ENDBRANCH   1   4
BRANCH   1  13
ATOM     13  C   TRP A   2      27.699   8.056  11.495  0.00  0.00    +0.241 C 
ATOM     14  N   HIS A   3      28.025   9.085  12.223  0.00  0.00    -0.297 N 
ATOM     15  H   HIS A   3      29.004   9.193  12.557  0.00  0.00    +0.150 HD
ATOM     16  O   TRP A   2      26.547   7.765  11.231  0.00  0.00    -0.273 OA
BRANCH  14  17
ATOM     17  CA  HIS A   3      27.027  10.085  12.572  0.00  0.00    +0.155 C 
BRANCH  17  18
ATOM     18  C   HIS A   3      27.545  11.450  12.132  0.00  0.00    +0.241 C 
ATOM     19  O   HIS A   3      28.655  11.815  12.461  0.00  0.00    -0.273 OA
ATOM     20  N   GLY A   4      26.695  12.192  11.443  0.00  0.00    -0.296 N 
ATOM     21  H   GLY A   4      25.831  11.753  11.067  0.00  0.00    +0.150 HD
BRANCH  20  22
ATOM     22  CA  GLY A   4      26.932  13.589  11.199  0.00  0.00    +0.163 C 
BRANCH  22  23
ATOM     23  C   GLY A   4      28.022  13.761  10.187  0.00  0.00    +0.229 C 
ATOM     24  O   GLY A   4      28.283  12.862   9.402  0.00  0.00    -0.286 OA
ENDBRANCH  22  23
ENDBRANCH  20  22
ENDBRANCH  17  18
BRANCH  17  25
ATOM     25  CB  HIS A   3      26.760  10.142  14.058  0.00  0.00    +0.076 C 
BRANCH  25  26
ATOM     26  CG  HIS A   3      25.727  11.168  14.393  0.00  0.00    +0.082 A 
ATOM     27  ND1 HIS A   3      26.016  12.337  15.061  0.00  0.00    -0.227 NA
ATOM     28  CE1 HIS A   3      24.906  13.052  15.188  0.00  0.00    +0.199 A 
ATOM     29  NE2 HIS A   3      23.921  12.400  14.601  0.00  0.00    -0.221 NA
ATOM     30  CD2 HIS A   3      24.411  11.218  14.095  0.00  0.00    +0.115 A 
ENDBRANCH  25  26
ENDBRANCH  17  25
ENDBRANCH  14  17
ENDBRANCH   1  13
BRANCH   1  31
ATOM     31  CB  TRP A   2      29.569   7.926   9.857  0.00  0.00    +0.057 C 
BRANCH  31  32
ATOM     32  CG  TRP A   2      28.653   8.416   8.714  0.00  0.00    -0.002 A 
ATOM     33  CD1 TRP A   2      28.114   9.650   8.578  0.00  0.00    +0.068 A 
ATOM     34  NE1 TRP A   2      27.402   9.737   7.397  0.00  0.00    -0.352 N 
ATOM     35  HE1 TRP A   2      26.892  10.577   7.056  0.00  0.00    +0.166 HD
ATOM     36  CE2 TRP A   2      27.480   8.529   6.749  0.00  0.00    +0.056 A 
ATOM     37  CZ2 TRP A   2      26.946   8.117   5.544  0.00  0.00    +0.017 A 
ATOM     38  CH2 TRP A   2      27.198   6.836   5.135  0.00  0.00    +0.001 A 
ATOM     39  CZ3 TRP A   2      27.985   5.993   5.879  0.00  0.00    +0.000 A 
ATOM     40  CE3 TRP A   2      28.542   6.404   7.076  0.00  0.00    +0.001 A 
ATOM     41  CD2 TRP A   2      28.284   7.684   7.536  0.00  0.00    +0.013 A 
ENDBRANCH  31  32
ENDBRANCH   1  31
TORSDOF 14
REMARK  Name = ../refined-set-2016/4x5z/4x5z_pocket.pdb
REMARK  231 active torsions:
REMARK  status: ('A' for Active; 'I' for Inactive)
REMARK    1  A    between atoms: _1  and  _3
REMARK    2  A    between atoms: _3  and  _4
REMARK    3  A    between atoms: _3  and  _6
REMARK    4  A    between atoms: _6  and  _7
REMARK    5  A    between atoms: _10  and  _12
REMARK    6  A    between atoms: _12  and  _13
REMARK    7  A    between atoms: _12  and  _15
REMARK    8  A    between atoms: _15  and  _16
REMARK    9  A    between atoms: _18  and  _20
REMARK   10  A    between atoms: _20  and  _21
REMARK   11  A    between atoms: _20  and  _23
REMARK   12  A    between atoms: _23  and  _24
REMARK   13  A    between atoms: _26  and  _28
REMARK   14  A    between atoms: _28  and  _29
REMARK   15  A    between atoms: _31  and  _33
REMARK   16  A    between atoms: _33  and  _34
REMARK   17  A    between atoms: _37  and  _39
REMARK   18  A    between atoms: _39  and  _40
REMARK   19  A    between atoms: _39  and  _42
REMARK   20  A    between atoms: _42  and  _43
REMARK   21  A    between atoms: _49  and  _51
REMARK   22  A    between atoms: _51  and  _52
REMARK   23  A    between atoms: _51  and  _54
REMARK   24  A    between atoms: _54  and  _55
REMARK   25  A    between atoms: _58  and  _60
REMARK   26  A    between atoms: _60  and  _61
REMARK   27  A    between atoms: _64  and  _66
REMARK   28  A    between atoms: _66  and  _67
REMARK   29  A    between atoms: _66  and  _69
REMARK   30  A    between atoms: _69  and  _70
REMARK   31  A    between atoms: _73  and  _75
REMARK   32  A    between atoms: _75  and  _76
REMARK   33  A    between atoms: _75  and  _78
REMARK   34  A    between atoms: _78  and  _79
REMARK   35  A    between atoms: _81  and  _83
REMARK   36  A    between atoms: _83  and  _84
REMARK   37  A    between atoms: _83  and  _86
REMARK   38  A    between atoms: _86  and  _87
REMARK   39  A    between atoms: _87  and  _88
REMARK   40  A    between atoms: _91  and  _93
REMARK   41  A    between atoms: _93  and  _94
REMARK   42  A    between atoms: _93  and  _96
REMARK   43  A    between atoms: _96  and  _97
REMARK   44  A    between atoms: _100  and  _102
REMARK   45  A    between atoms: _102  and  _103
REMARK   46  A    between atoms: _102  and  _105
REMARK   47  A    between atoms: _105  and  _106
REMARK   48  A    between atoms: _111  and  _113
REMARK   49  A    between atoms: _113  and  _114
REMARK   50  A    between atoms: _117  and  _119
REMARK   51  A    between atoms: _119  and  _120
REMARK   52  A    between atoms: _119  and  _122
REMARK   53  A    between atoms: _122  and  _123
REMARK   54  A    between atoms: _133  and  _135
REMARK   55  A    between atoms: _135  and  _136
REMARK   56  A    between atoms: _135  and  _138
REMARK   57  A    between atoms: _138  and  _139
REMARK   58  A    between atoms: _142  and  _144
REMARK   59  A    between atoms: _144  and  _145
REMARK   60  A    between atoms: _144  and  _147
REMARK   61  A    between atoms: _147  and  _148
REMARK   62  A    between atoms: _158  and  _160
REMARK   63  A    between atoms: _160  and  _161
REMARK   64  A    between atoms: _160  and  _163
REMARK   65  A    between atoms: _163  and  _164
REMARK   66  A    between atoms: _169  and  _171
REMARK   67  A    between atoms: _171  and  _172
REMARK   68  A    between atoms: _174  and  _176
REMARK   69  A    between atoms: _176  and  _177
REMARK   70  A    between atoms: _176  and  _179
REMARK   71  A    between atoms: _179  and  _180
REMARK   72  A    between atoms: _190  and  _192
REMARK   73  A    between atoms: _192  and  _193
REMARK   74  A    between atoms: _192  and  _195
REMARK   75  A    between atoms: _195  and  _196
REMARK   76  A    between atoms: _199  and  _201
REMARK   77  A    between atoms: _201  and  _202
REMARK   78  A    between atoms: _201  and  _204
REMARK   79  A    between atoms: _204  and  _205
REMARK   80  A    between atoms: _205  and  _206
REMARK   81  A    between atoms: _208  and  _210
REMARK   82  A    between atoms: _210  and  _211
REMARK   83  A    between atoms: _210  and  _213
REMARK   84  A    between atoms: _215  and  _217
REMARK   85  A    between atoms: _217  and  _218
REMARK   86  A    between atoms: _221  and  _223
REMARK   87  A    between atoms: _223  and  _224
REMARK   88  A    between atoms: _223  and  _226
REMARK   89  A    between atoms: _226  and  _227
REMARK   90  A    between atoms: _233  and  _235
REMARK   91  A    between atoms: _235  and  _236
REMARK   92  A    between atoms: _235  and  _238
REMARK   93  A    between atoms: _238  and  _239
REMARK   94  A    between atoms: _239  and  _240
REMARK   95  A    between atoms: _242  and  _244
REMARK   96  A    between atoms: _244  and  _245
REMARK   97  A    between atoms: _244  and  _247
REMARK   98  A    between atoms: _250  and  _252
REMARK   99  A    between atoms: _252  and  _253
REMARK  100  A    between atoms: _252  and  _255
REMARK  101  A    between atoms: _257  and  _259
REMARK  102  A    between atoms: _259  and  _260
REMARK  103  A    between atoms: _263  and  _265
REMARK  104  A    between atoms: _265  and  _266
REMARK  105  A    between atoms: _265  and  _268
REMARK  106  A    between atoms: _268  and  _269
REMARK  107  A    between atoms: _269  and  _270
REMARK  108  A    between atoms: _275  and  _277
REMARK  109  A    between atoms: _277  and  _278
REMARK  110  A    between atoms: _277  and  _280
REMARK  111  A    between atoms: _280  and  _281
REMARK  112  A    between atoms: _286  and  _287
REMARK  113  A    between atoms: _290  and  _291
REMARK  114  A    between atoms: _296  and  _298
REMARK  115  A    between atoms: _298  and  _299
REMARK  116  A    between atoms: _298  and  _301
REMARK  117  A    between atoms: _301  and  _302
REMARK  118  A    between atoms: _302  and  _303
REMARK  119  A    between atoms: _305  and  _307
REMARK  120  A    between atoms: _307  and  _308
REMARK  121  A    between atoms: _311  and  _313
REMARK  122  A    between atoms: _313  and  _314
REMARK  123  A    between atoms: _313  and  _316
REMARK  124  A    between atoms: _316  and  _317
REMARK  125  A    between atoms: _320  and  _322
REMARK  126  A    between atoms: _322  and  _323
REMARK  127  A    between atoms: _325  and  _327
REMARK  128  A    between atoms: _327  and  _328
REMARK  129  A    between atoms: _327  and  _330
REMARK  130  A    between atoms: _330  and  _331
REMARK  131  A    between atoms: _336  and  _338
REMARK  132  A    between atoms: _338  and  _339
REMARK  133  A    between atoms: _338  and  _341
REMARK  134  A    between atoms: _341  and  _342
REMARK  135  A    between atoms: _345  and  _347
REMARK  136  A    between atoms: _347  and  _348
REMARK  137  A    between atoms: _347  and  _350
REMARK  138  A    between atoms: _350  and  _351
REMARK  139  A    between atoms: _356  and  _357
REMARK  140  A    between atoms: _359  and  _361
REMARK  141  A    between atoms: _361  and  _362
REMARK  142  A    between atoms: _361  and  _364
REMARK  143  A    between atoms: _364  and  _365
REMARK  144  A    between atoms: _368  and  _370
REMARK  145  A    between atoms: _370  and  _371
REMARK  146  A    between atoms: _370  and  _373
REMARK  147  A    between atoms: _373  and  _374
REMARK  148  A    between atoms: _379  and  _380
REMARK  149  A    between atoms: _383  and  _384
REMARK  150  A    between atoms: _389  and  _391
REMARK  151  A    between atoms: _391  and  _392
REMARK  152  A    between atoms: _391  and  _394
REMARK  153  A    between atoms: _394  and  _395
REMARK  154  A    between atoms: _400  and  _401
REMARK  155  A    between atoms: _403  and  _405
REMARK  156  A    between atoms: _405  and  _406
REMARK  157  A    between atoms: _405  and  _408
REMARK  158  A    between atoms: _408  and  _409
REMARK  159  A    between atoms: _409  and  _410
REMARK  160  A    between atoms: _412  and  _414
REMARK  161  A    between atoms: _414  and  _415
REMARK  162  A    between atoms: _414  and  _417
REMARK  163  A    between atoms: _417  and  _418
REMARK  164  A    between atoms: _423  and  _424
REMARK  165  A    between atoms: _426  and  _428
REMARK  166  A    between atoms: _428  and  _429
REMARK  167  A    between atoms: _428  and  _431
REMARK  168  A    between atoms: _431  and  _432
REMARK  169  A    between atoms: _435  and  _437
REMARK  170  A    between atoms: _437  and  _438
REMARK  171  A    between atoms: _441  and  _443
REMARK  172  A    between atoms: _443  and  _444
REMARK  173  A    between atoms: _446  and  _448
REMARK  174  A    between atoms: _448  and  _449
REMARK  175  A    between atoms: _448  and  _451
REMARK  176  A    between atoms: _451  and  _452
REMARK  177  A    between atoms: _457  and  _458
REMARK  178  A    between atoms: _460  and  _462
REMARK  179  A    between atoms: _462  and  _463
REMARK  180  A    between atoms: _462  and  _465
REMARK  181  A    between atoms: _465  and  _466
REMARK  182  A    between atoms: _471  and  _473
REMARK  183  A    between atoms: _473  and  _474
REMARK  184  A    between atoms: _473  and  _476
REMARK  185  A    between atoms: _478  and  _480
REMARK  186  A    between atoms: _480  and  _481
REMARK  187  A    between atoms: _480  and  _483
REMARK  188  A    between atoms: _483  and  _484
REMARK  189  A    between atoms: _484  and  _485
REMARK  190  A    between atoms: _485  and  _486
REMARK  191  A    between atoms: _495  and  _497
REMARK  192  A    between atoms: _497  and  _498
REMARK  193  A    between atoms: _501  and  _503
REMARK  194  A    between atoms: _503  and  _504
REMARK  195  A    between atoms: _507  and  _509
REMARK  196  A    between atoms: _509  and  _510
REMARK  197  A    between atoms: _509  and  _512
REMARK  198  A    between atoms: _512  and  _513
REMARK  199  A    between atoms: _523  and  _525
REMARK  200  A    between atoms: _525  and  _526
REMARK  201  A    between atoms: _525  and  _528
REMARK  202  A    between atoms: _528  and  _529
REMARK  203  A    between atoms: _532  and  _534
REMARK  204  A    between atoms: _534  and  _535
REMARK  205  A    between atoms: _534  and  _537
REMARK  206  A    between atoms: _537  and  _538
REMARK  207  A    between atoms: _538  and  _539
REMARK  208  A    between atoms: _542  and  _544
REMARK  209  A    between atoms: _544  and  _545
REMARK  210  A    between atoms: _544  and  _547
REMARK  211  A    between atoms: _547  and  _548
REMARK  212  A    between atoms: _551  and  _553
REMARK  213  A    between atoms: _553  and  _554
REMARK  214  A    between atoms: _553  and  _556
REMARK  215  A    between atoms: _556  and  _557
REMARK  216  A    between atoms: _557  and  _558
REMARK  217  A    between atoms: _561  and  _563
REMARK  218  A    between atoms: _563  and  _564
REMARK  219  A    between atoms: _563  and  _566
REMARK  220  A    between atoms: _566  and  _567
REMARK  221  A    between atoms: _573  and  _575
REMARK  222  A    between atoms: _575  and  _576
REMARK  223  A    between atoms: _575  and  _578
REMARK  224  A    between atoms: _578  and  _579
REMARK  225  A    between atoms: _579  and  _580
REMARK  226  A    between atoms: _583  and  _585
REMARK  227  A    between atoms: _585  and  _586
REMARK  228  A    between atoms: _585  and  _588
REMARK  229  A    between atoms: _591  and  _593
REMARK  230  A    between atoms: _593  and  _594
REMARK  231  A    between atoms: _593  and  _596
REMARK                            x       y       z     vdW  Elec       q    Type
REMARK                         _______ _______ _______ _____ _____    ______ ____
ROOT
ATOM      1  CA  TRP A   1      20.129  13.799  23.314  0.00  0.00    +0.149 C 
ENDROOT
BRANCH   1   2
ATOM      2  C   TRP A   1      20.350  12.678  22.328  0.00  0.00    +0.239 C 
ATOM      3  O   TRP A   1      19.477  11.904  22.106  0.00  0.00    -0.274 OA
ATOM      4  N   LEU A   2      21.505  12.642  21.700  0.00  0.00    -0.298 N 
ATOM      5  H   LEU A   2      22.231  13.345  21.947  0.00  0.00    +0.150 HD
BRANCH   4   6
ATOM      6  CA  LEU A   2      21.810  11.645  20.661  0.00  0.00    +0.137 C 
BRANCH   6   7
ATOM      7  C   LEU A   2      21.552  10.229  21.099  0.00  0.00    +0.227 C 
ATOM      8  O   LEU A   2      21.086   9.414  20.266  0.00  0.00    -0.286 OA
ENDBRANCH   6   7
BRANCH   6   9
ATOM      9  CB  LEU A   2      23.277  11.761  20.188  0.00  0.00    +0.028 C 
BRANCH   9  10
ATOM     10  CG  LEU A   2      23.556  11.073  18.830  0.00  0.00    +0.002 C 
ATOM     11  CD2 LEU A   2      25.025  11.104  18.418  0.00  0.00    +0.000 C 
ATOM     12  CD1 LEU A   2      22.649  11.606  17.738  0.00  0.00    +0.000 C 
ENDBRANCH   9  10
ENDBRANCH   6   9
ENDBRANCH   4   6
ENDBRANCH   1   2
BRANCH   1  13
ATOM     13  N   TRP A   1      21.332  14.112  24.066  0.00  0.00    -0.238 NA
ATOM     14  H   TRP A   1      21.730  15.072  24.026  0.00  0.00    +0.142 HD
ENDBRANCH   1  13
BRANCH   1  15
ATOM     15  CB  TRP A   1      19.597  15.026  22.605  0.00  0.00    +0.054 C 
BRANCH  15  16
ATOM     16  CG  TRP A   1      18.505  14.767  21.619  0.00  0.00    -0.002 A 
ATOM     17  CD1 TRP A   1      17.221  14.401  21.898  0.00  0.00    +0.068 A 
ATOM     18  NE1 TRP A   1      16.499  14.317  20.757  0.00  0.00    -0.352 N 
ATOM     19  HE1 TRP A   1      15.494  14.056  20.697  0.00  0.00    +0.166 HD
ATOM     20  CE2 TRP A   1      17.300  14.630  19.698  0.00  0.00    +0.056 A 
ATOM     21  CZ2 TRP A   1      17.025  14.613  18.328  0.00  0.00    +0.017 A 
ATOM     22  CH2 TRP A   1      18.059  14.909  17.466  0.00  0.00    +0.001 A 
ATOM     23  CZ3 TRP A   1      19.338  15.234  17.940  0.00  0.00    +0.000 A 
ATOM     24  CE3 TRP A   1      19.628  15.198  19.315  0.00  0.00    +0.001 A 
ATOM     25  CD2 TRP A   1      18.588  14.898  20.211  0.00  0.00    +0.013 A 
ENDBRANCH  15  16
ENDBRANCH   1  15
TORSDOF 8
REMARK  Name = ../refined-set-2016/4x5z/4x5z_pocket.pdb
REMARK  231 active torsions:
REMARK  status: ('A' for Active; 'I' for Inactive)
REMARK    1  A    between atoms: _1  and  _3
REMARK    2  A    between atoms: _3  and  _4
REMARK    3  A    between atoms: _3  and  _6
REMARK    4  A    between atoms: _6  and  _7
REMARK    5  A    between atoms: _10  and  _12
REMARK    6  A    between atoms: _12  and  _13
REMARK    7  A    between atoms: _12  and  _15
REMARK    8  A    between atoms: _15  and  _16
REMARK    9  A    between atoms: _18  and  _20
REMARK   10  A    between atoms: _20  and  _21
REMARK   11  A    between atoms: _20  and  _23
REMARK   12  A    between atoms: _23  and  _24
REMARK   13  A    between atoms: _26  and  _28
REMARK   14  A    between atoms: _28  and  _29
REMARK   15  A    between atoms: _31  and  _33
REMARK   16  A    between atoms: _33  and  _34
REMARK   17  A    between atoms: _37  and  _39
REMARK   18  A    between atoms: _39  and  _40
REMARK   19  A    between atoms: _39  and  _42
REMARK   20  A    between atoms: _42  and  _43
REMARK   21  A    between atoms: _49  and  _51
REMARK   22  A    between atoms: _51  and  _52
REMARK   23  A    between atoms: _51  and  _54
REMARK   24  A    between atoms: _54  and  _55
REMARK   25  A    between atoms: _58  and  _60
REMARK   26  A    between atoms: _60  and  _61
REMARK   27  A    between atoms: _64  and  _66
REMARK   28  A    between atoms: _66  and  _67
REMARK   29  A    between atoms: _66  and  _69
REMARK   30  A    between atoms: _69  and  _70
REMARK   31  A    between atoms: _73  and  _75
REMARK   32  A    between atoms: _75  and  _76
REMARK   33  A    between atoms: _75  and  _78
REMARK   34  A    between atoms: _78  and  _79
REMARK   35  A    between atoms: _81  and  _83
REMARK   36  A    between atoms: _83  and  _84
REMARK   37  A    between atoms: _83  and  _86
REMARK   38  A    between atoms: _86  and  _87
REMARK   39  A    between atoms: _87  and  _88
REMARK   40  A    between atoms: _91  and  _93
REMARK   41  A    between atoms: _93  and  _94
REMARK   42  A    between atoms: _93  and  _96
REMARK   43  A    between atoms: _96  and  _97
REMARK   44  A    between atoms: _100  and  _102
REMARK   45  A    between atoms: _102  and  _103
REMARK   46  A    between atoms: _102  and  _105
REMARK   47  A    between atoms: _105  and  _106
REMARK   48  A    between atoms: _111  and  _113
REMARK   49  A    between atoms: _113  and  _114
REMARK   50  A    between atoms: _117  and  _119
REMARK   51  A    between atoms: _119  and  _120
REMARK   52  A    between atoms: _119  and  _122
REMARK   53  A    between atoms: _122  and  _123
REMARK   54  A    between atoms: _133  and  _135
REMARK   55  A    between atoms: _135  and  _136
REMARK   56  A    between atoms: _135  and  _138
REMARK   57  A    between atoms: _138  and  _139
REMARK   58  A    between atoms: _142  and  _144
REMARK   59  A    between atoms: _144  and  _145
REMARK   60  A    between atoms: _144  and  _147
REMARK   61  A    between atoms: _147  and  _148
REMARK   62  A    between atoms: _158  and  _160
REMARK   63  A    between atoms: _160  and  _161
REMARK   64  A    between atoms: _160  and  _163
REMARK   65  A    between atoms: _163  and  _164
REMARK   66  A    between atoms: _169  and  _171
REMARK   67  A    between atoms: _171  and  _172
REMARK   68  A    between atoms: _174  and  _176
REMARK   69  A    between atoms: _176  and  _177
REMARK   70  A    between atoms: _176  and  _179
REMARK   71  A    between atoms: _179  and  _180
REMARK   72  A    between atoms: _190  and  _192
REMARK   73  A    between atoms: _192  and  _193
REMARK   74  A    between atoms: _192  and  _195
REMARK   75  A    between atoms: _195  and  _196
REMARK   76  A    between atoms: _199  and  _201
REMARK   77  A    between atoms: _201  and  _202
REMARK   78  A    between atoms: _201  and  _204
REMARK   79  A    between atoms: _204  and  _205
REMARK   80  A    between atoms: _205  and  _206
REMARK   81  A    between atoms: _208  and  _210
REMARK   82  A    between atoms: _210  and  _211
REMARK   83  A    between atoms: _210  and  _213
REMARK   84  A    between atoms: _215  and  _217
REMARK   85  A    between atoms: _217  and  _218
REMARK   86  A    between atoms: _221  and  _223
REMARK   87  A    between atoms: _223  and  _224
REMARK   88  A    between atoms: _223  and  _226
REMARK   89  A    between atoms: _226  and  _227
REMARK   90  A    between atoms: _233  and  _235
REMARK   91  A    between atoms: _235  and  _236
REMARK   92  A    between atoms: _235  and  _238
REMARK   93  A    between atoms: _238  and  _239
REMARK   94  A    between atoms: _239  and  _240
REMARK   95  A    between atoms: _242  and  _244
REMARK   96  A    between atoms: _244  and  _245
REMARK   97  A    between atoms: _244  and  _247
REMARK   98  A    between atoms: _250  and  _252
REMARK   99  A    between atoms: _252  and  _253
REMARK  100  A    between atoms: _252  and  _255
REMARK  101  A    between atoms: _257  and  _259
REMARK  102  A    between atoms: _259  and  _260
REMARK  103  A    between atoms: _263  and  _265
REMARK  104  A    between atoms: _265  and  _266
REMARK  105  A    between atoms: _265  and  _268
REMARK  106  A    between atoms: _268  and  _269
REMARK  107  A    between atoms: _269  and  _270
REMARK  108  A    between atoms: _275  and  _277
REMARK  109  A    between atoms: _277  and  _278
REMARK  110  A    between atoms: _277  and  _280
REMARK  111  A    between atoms: _280  and  _281
REMARK  112  A    between atoms: _286  and  _287
REMARK  113  A    between atoms: _290  and  _291
REMARK  114  A    between atoms: _296  and  _298
REMARK  115  A    between atoms: _298  and  _299
REMARK  116  A    between atoms: _298  and  _301
REMARK  117  A    between atoms: _301  and  _302
REMARK  118  A    between atoms: _302  and  _303
REMARK  119  A    between atoms: _305  and  _307
REMARK  120  A    between atoms: _307  and  _308
REMARK  121  A    between atoms: _311  and  _313
REMARK  122  A    between atoms: _313  and  _314
REMARK  123  A    between atoms: _313  and  _316
REMARK  124  A    between atoms: _316  and  _317
REMARK  125  A    between atoms: _320  and  _322
REMARK  126  A    between atoms: _322  and  _323
REMARK  127  A    between atoms: _325  and  _327
REMARK  128  A    between atoms: _327  and  _328
REMARK  129  A    between atoms: _327  and  _330
REMARK  130  A    between atoms: _330  and  _331
REMARK  131  A    between atoms: _336  and  _338
REMARK  132  A    between atoms: _338  and  _339
REMARK  133  A    between atoms: _338  and  _341
REMARK  134  A    between atoms: _341  and  _342
REMARK  135  A    between atoms: _345  and  _347
REMARK  136  A    between atoms: _347  and  _348
REMARK  137  A    between atoms: _347  and  _350
REMARK  138  A    between atoms: _350  and  _351
REMARK  139  A    between atoms: _356  and  _357
REMARK  140  A    between atoms: _359  and  _361
REMARK  141  A    between atoms: _361  and  _362
REMARK  142  A    between atoms: _361  and  _364
REMARK  143  A    between atoms: _364  and  _365
REMARK  144  A    between atoms: _368  and  _370
REMARK  145  A    between atoms: _370  and  _371
REMARK  146  A    between atoms: _370  and  _373
REMARK  147  A    between atoms: _373  and  _374
REMARK  148  A    between atoms: _379  and  _380
REMARK  149  A    between atoms: _383  and  _384
REMARK  150  A    between atoms: _389  and  _391
REMARK  151  A    between atoms: _391  and  _392
REMARK  152  A    between atoms: _391  and  _394
REMARK  153  A    between atoms: _394  and  _395
REMARK  154  A    between atoms: _400  and  _401
REMARK  155  A    between atoms: _403  and  _405
REMARK  156  A    between atoms: _405  and  _406
REMARK  157  A    between atoms: _405  and  _408
REMARK  158  A    between atoms: _408  and  _409
REMARK  159  A    between atoms: _409  and  _410
REMARK  160  A    between atoms: _412  and  _414
REMARK  161  A    between atoms: _414  and  _415
REMARK  162  A    between atoms: _414  and  _417
REMARK  163  A    between atoms: _417  and  _418
REMARK  164  A    between atoms: _423  and  _424
REMARK  165  A    between atoms: _426  and  _428
REMARK  166  A    between atoms: _428  and  _429
REMARK  167  A    between atoms: _428  and  _431
REMARK  168  A    between atoms: _431  and  _432
REMARK  169  A    between atoms: _435  and  _437
REMARK  170  A    between atoms: _437  and  _438
REMARK  171  A    between atoms: _441  and  _443
REMARK  172  A    between atoms: _443  and  _444
REMARK  173  A    between atoms: _446  and  _448
REMARK  174  A    between atoms: _448  and  _449
REMARK  175  A    between atoms: _448  and  _451
REMARK  176  A    between atoms: _451  and  _452
REMARK  177  A    between atoms: _457  and  _458
REMARK  178  A    between atoms: _460  and  _462
REMARK  179  A    between atoms: _462  and  _463
REMARK  180  A    between atoms: _462  and  _465
REMARK  181  A    between atoms: _465  and  _466
REMARK  182  A    between atoms: _471  and  _473
REMARK  183  A    between atoms: _473  and  _474
REMARK  184  A    between atoms: _473  and  _476
REMARK  185  A    between atoms: _478  and  _480
REMARK  186  A    between atoms: _480  and  _481
REMARK  187  A    between atoms: _480  and  _483
REMARK  188  A    between atoms: _483  and  _484
REMARK  189  A    between atoms: _484  and  _485
REMARK  190  A    between atoms: _485  and  _486
REMARK  191  A    between atoms: _495  and  _497
REMARK  192  A    between atoms: _497  and  _498
REMARK  193  A    between atoms: _501  and  _503
REMARK  194  A    between atoms: _503  and  _504
REMARK  195  A    between atoms: _507  and  _509
REMARK  196  A    between atoms: _509  and  _510
REMARK  197  A    between atoms: _509  and  _512
REMARK  198  A    between atoms: _512  and  _513
REMARK  199  A    between atoms: _523  and  _525
REMARK  200  A    between atoms: _525  and  _526
REMARK  201  A    between atoms: _525  and  _528
REMARK  202  A    between atoms: _528  and  _529
REMARK  203  A    between atoms: _532  and  _534
REMARK  204  A    between atoms: _534  and  _535
REMARK  205  A    between atoms: _534  and  _537
REMARK  206  A    between atoms: _537  and  _538
REMARK  207  A    between atoms: _538  and  _539
REMARK  208  A    between atoms: _542  and  _544
REMARK  209  A    between atoms: _544  and  _545
REMARK  210  A    between atoms: _544  and  _547
REMARK  211  A    between atoms: _547  and  _548
REMARK  212  A    between atoms: _551  and  _553
REMARK  213  A    between atoms: _553  and  _554
REMARK  214  A    between atoms: _553  and  _556
REMARK  215  A    between atoms: _556  and  _557
REMARK  216  A    between atoms: _557  and  _558
REMARK  217  A    between atoms: _561  and  _563
REMARK  218  A    between atoms: _563  and  _564
REMARK  219  A    between atoms: _563  and  _566
REMARK  220  A    between atoms: _566  and  _567
REMARK  221  A    between atoms: _573  and  _575
REMARK  222  A    between atoms: _575  and  _576
REMARK  223  A    between atoms: _575  and  _578
REMARK  224  A    between atoms: _578  and  _579
REMARK  225  A    between atoms: _579  and  _580
REMARK  226  A    between atoms: _583  and  _585
REMARK  227  A    between atoms: _585  and  _586
REMARK  228  A    between atoms: _585  and  _588
REMARK  229  A    between atoms: _591  and  _593
REMARK  230  A    between atoms: _593  and  _594
REMARK  231  A    between atoms: _593  and  _596
REMARK                            x       y       z     vdW  Elec       q    Type
REMARK                         _______ _______ _______ _____ _____    ______ ____
ROOT
ATOM      1  CA  MET A   1      14.209   2.277  20.431  0.00  0.00    +0.134 C 
ENDROOT
BRANCH   1   2
ATOM      2  N   MET A   1      15.052   3.397  20.885  0.00  0.00    -0.239 NA
ATOM      3  H   MET A   1      15.356   4.114  20.196  0.00  0.00    +0.142 HD
ENDBRANCH   1   2
BRANCH   1   4
ATOM      4  C   MET A   1      15.103   1.064  20.169  0.00  0.00    +0.224 C 
ATOM      5  O   MET A   1      16.139   1.212  19.573  0.00  0.00    -0.287 OA
ENDBRANCH   1   4
BRANCH   1   6
ATOM      6  CB  MET A   1      13.507   2.668  19.155  0.00  0.00    +0.037 C 
BRANCH   6   7
ATOM      7  CG  MET A   1      12.584   3.867  19.235  0.00  0.00    +0.059 C 
BRANCH   7   8
ATOM      8  SD  MET A   1      12.021   4.390  17.593  0.00  0.00    -0.139 S 
ATOM      9  CE  MET A   1      11.376   2.820  16.960  0.00  0.00    +0.069 C 
ENDBRANCH   7   8
ENDBRANCH   6   7
ENDBRANCH   1   6
TORSDOF 5
REMARK  Name = ../refined-set-2016/4x5z/4x5z_pocket.pdb
REMARK  231 active torsions:
REMARK  status: ('A' for Active; 'I' for Inactive)
REMARK    1  A    between atoms: _1  and  _3
REMARK    2  A    between atoms: _3  and  _4
REMARK    3  A    between atoms: _3  and  _6
REMARK    4  A    between atoms: _6  and  _7
REMARK    5  A    between atoms: _10  and  _12
REMARK    6  A    between atoms: _12  and  _13
REMARK    7  A    between atoms: _12  and  _15
REMARK    8  A    between atoms: _15  and  _16
REMARK    9  A    between atoms: _18  and  _20
REMARK   10  A    between atoms: _20  and  _21
REMARK   11  A    between atoms: _20  and  _23
REMARK   12  A    between atoms: _23  and  _24
REMARK   13  A    between atoms: _26  and  _28
REMARK   14  A    between atoms: _28  and  _29
REMARK   15  A    between atoms: _31  and  _33
REMARK   16  A    between atoms: _33  and  _34
REMARK   17  A    between atoms: _37  and  _39
REMARK   18  A    between atoms: _39  and  _40
REMARK   19  A    between atoms: _39  and  _42
REMARK   20  A    between atoms: _42  and  _43
REMARK   21  A    between atoms: _49  and  _51
REMARK   22  A    between atoms: _51  and  _52
REMARK   23  A    between atoms: _51  and  _54
REMARK   24  A    between atoms: _54  and  _55
REMARK   25  A    between atoms: _58  and  _60
REMARK   26  A    between atoms: _60  and  _61
REMARK   27  A    between atoms: _64  and  _66
REMARK   28  A    between atoms: _66  and  _67
REMARK   29  A    between atoms: _66  and  _69
REMARK   30  A    between atoms: _69  and  _70
REMARK   31  A    between atoms: _73  and  _75
REMARK   32  A    between atoms: _75  and  _76
REMARK   33  A    between atoms: _75  and  _78
REMARK   34  A    between atoms: _78  and  _79
REMARK   35  A    between atoms: _81  and  _83
REMARK   36  A    between atoms: _83  and  _84
REMARK   37  A    between atoms: _83  and  _86
REMARK   38  A    between atoms: _86  and  _87
REMARK   39  A    between atoms: _87  and  _88
REMARK   40  A    between atoms: _91  and  _93
REMARK   41  A    between atoms: _93  and  _94
REMARK   42  A    between atoms: _93  and  _96
REMARK   43  A    between atoms: _96  and  _97
REMARK   44  A    between atoms: _100  and  _102
REMARK   45  A    between atoms: _102  and  _103
REMARK   46  A    between atoms: _102  and  _105
REMARK   47  A    between atoms: _105  and  _106
REMARK   48  A    between atoms: _111  and  _113
REMARK   49  A    between atoms: _113  and  _114
REMARK   50  A    between atoms: _117  and  _119
REMARK   51  A    between atoms: _119  and  _120
REMARK   52  A    between atoms: _119  and  _122
REMARK   53  A    between atoms: _122  and  _123
REMARK   54  A    between atoms: _133  and  _135
REMARK   55  A    between atoms: _135  and  _136
REMARK   56  A    between atoms: _135  and  _138
REMARK   57  A    between atoms: _138  and  _139
REMARK   58  A    between atoms: _142  and  _144
REMARK   59  A    between atoms: _144  and  _145
REMARK   60  A    between atoms: _144  and  _147
REMARK   61  A    between atoms: _147  and  _148
REMARK   62  A    between atoms: _158  and  _160
REMARK   63  A    between atoms: _160  and  _161
REMARK   64  A    between atoms: _160  and  _163
REMARK   65  A    between atoms: _163  and  _164
REMARK   66  A    between atoms: _169  and  _171
REMARK   67  A    between atoms: _171  and  _172
REMARK   68  A    between atoms: _174  and  _176
REMARK   69  A    between atoms: _176  and  _177
REMARK   70  A    between atoms: _176  and  _179
REMARK   71  A    between atoms: _179  and  _180
REMARK   72  A    between atoms: _190  and  _192
REMARK   73  A    between atoms: _192  and  _193
REMARK   74  A    between atoms: _192  and  _195
REMARK   75  A    between atoms: _195  and  _196
REMARK   76  A    between atoms: _199  and  _201
REMARK   77  A    between atoms: _201  and  _202
REMARK   78  A    between atoms: _201  and  _204
REMARK   79  A    between atoms: _204  and  _205
REMARK   80  A    between atoms: _205  and  _206
REMARK   81  A    between atoms: _208  and  _210
REMARK   82  A    between atoms: _210  and  _211
REMARK   83  A    between atoms: _210  and  _213
REMARK   84  A    between atoms: _215  and  _217
REMARK   85  A    between atoms: _217  and  _218
REMARK   86  A    between atoms: _221  and  _223
REMARK   87  A    between atoms: _223  and  _224
REMARK   88  A    between atoms: _223  and  _226
REMARK   89  A    between atoms: _226  and  _227
REMARK   90  A    between atoms: _233  and  _235
REMARK   91  A    between atoms: _235  and  _236
REMARK   92  A    between atoms: _235  and  _238
REMARK   93  A    between atoms: _238  and  _239
REMARK   94  A    between atoms: _239  and  _240
REMARK   95  A    between atoms: _242  and  _244
REMARK   96  A    between atoms: _244  and  _245
REMARK   97  A    between atoms: _244  and  _247
REMARK   98  A    between atoms: _250  and  _252
REMARK   99  A    between atoms: _252  and  _253
REMARK  100  A    between atoms: _252  and  _255
REMARK  101  A    between atoms: _257  and  _259
REMARK  102  A    between atoms: _259  and  _260
REMARK  103  A    between atoms: _263  and  _265
REMARK  104  A    between atoms: _265  and  _266
REMARK  105  A    between atoms: _265  and  _268
REMARK  106  A    between atoms: _268  and  _269
REMARK  107  A    between atoms: _269  and  _270
REMARK  108  A    between atoms: _275  and  _277
REMARK  109  A    between atoms: _277  and  _278
REMARK  110  A    between atoms: _277  and  _280
REMARK  111  A    between atoms: _280  and  _281
REMARK  112  A    between atoms: _286  and  _287
REMARK  113  A    between atoms: _290  and  _291
REMARK  114  A    between atoms: _296  and  _298
REMARK  115  A    between atoms: _298  and  _299
REMARK  116  A    between atoms: _298  and  _301
REMARK  117  A    between atoms: _301  and  _302
REMARK  118  A    between atoms: _302  and  _303
REMARK  119  A    between atoms: _305  and  _307
REMARK  120  A    between atoms: _307  and  _308
REMARK  121  A    between atoms: _311  and  _313
REMARK  122  A    between atoms: _313  and  _314
REMARK  123  A    between atoms: _313  and  _316
REMARK  124  A    between atoms: _316  and  _317
REMARK  125  A    between atoms: _320  and  _322
REMARK  126  A    between atoms: _322  and  _323
REMARK  127  A    between atoms: _325  and  _327
REMARK  128  A    between atoms: _327  and  _328
REMARK  129  A    between atoms: _327  and  _330
REMARK  130  A    between atoms: _330  and  _331
REMARK  131  A    between atoms: _336  and  _338
REMARK  132  A    between atoms: _338  and  _339
REMARK  133  A    between atoms: _338  and  _341
REMARK  134  A    between atoms: _341  and  _342
REMARK  135  A    between atoms: _345  and  _347
REMARK  136  A    between atoms: _347  and  _348
REMARK  137  A    between atoms: _347  and  _350
REMARK  138  A    between atoms: _350  and  _351
REMARK  139  A    between atoms: _356  and  _357
REMARK  140  A    between atoms: _359  and  _361
REMARK  141  A    between atoms: _361  and  _362
REMARK  142  A    between atoms: _361  and  _364
REMARK  143  A    between atoms: _364  and  _365
REMARK  144  A    between atoms: _368  and  _370
REMARK  145  A    between atoms: _370  and  _371
REMARK  146  A    between atoms: _370  and  _373
REMARK  147  A    between atoms: _373  and  _374
REMARK  148  A    between atoms: _379  and  _380
REMARK  149  A    between atoms: _383  and  _384
REMARK  150  A    between atoms: _389  and  _391
REMARK  151  A    between atoms: _391  and  _392
REMARK  152  A    between atoms: _391  and  _394
REMARK  153  A    between atoms: _394  and  _395
REMARK  154  A    between atoms: _400  and  _401
REMARK  155  A    between atoms: _403  and  _405
REMARK  156  A    between atoms: _405  and  _406
REMARK  157  A    between atoms: _405  and  _408
REMARK  158  A    between atoms: _408  and  _409
REMARK  159  A    between atoms: _409  and  _410
REMARK  160  A    between atoms: _412  and  _414
REMARK  161  A    between atoms: _414  and  _415
REMARK  162  A    between atoms: _414  and  _417
REMARK  163  A    between atoms: _417  and  _418
REMARK  164  A    between atoms: _423  and  _424
REMARK  165  A    between atoms: _426  and  _428
REMARK  166  A    between atoms: _428  and  _429
REMARK  167  A    between atoms: _428  and  _431
REMARK  168  A    between atoms: _431  and  _432
REMARK  169  A    between atoms: _435  and  _437
REMARK  170  A    between atoms: _437  and  _438
REMARK  171  A    between atoms: _441  and  _443
REMARK  172  A    between atoms: _443  and  _444
REMARK  173  A    between atoms: _446  and  _448
REMARK  174  A    between atoms: _448  and  _449
REMARK  175  A    between atoms: _448  and  _451
REMARK  176  A    between atoms: _451  and  _452
REMARK  177  A    between atoms: _457  and  _458
REMARK  178  A    between atoms: _460  and  _462
REMARK  179  A    between atoms: _462  and  _463
REMARK  180  A    between atoms: _462  and  _465
REMARK  181  A    between atoms: _465  and  _466
REMARK  182  A    between atoms: _471  and  _473
REMARK  183  A    between atoms: _473  and  _474
REMARK  184  A    between atoms: _473  and  _476
REMARK  185  A    between atoms: _478  and  _480
REMARK  186  A    between atoms: _480  and  _481
REMARK  187  A    between atoms: _480  and  _483
REMARK  188  A    between atoms: _483  and  _484
REMARK  189  A    between atoms: _484  and  _485
REMARK  190  A    between atoms: _485  and  _486
REMARK  191  A    between atoms: _495  and  _497
REMARK  192  A    between atoms: _497  and  _498
REMARK  193  A    between atoms: _501  and  _503
REMARK  194  A    between atoms: _503  and  _504
REMARK  195  A    between atoms: _507  and  _509
REMARK  196  A    between atoms: _509  and  _510
REMARK  197  A    between atoms: _509  and  _512
REMARK  198  A    between atoms: _512  and  _513
REMARK  199  A    between atoms: _523  and  _525
REMARK  200  A    between atoms: _525  and  _526
REMARK  201  A    between atoms: _525  and  _528
REMARK  202  A    between atoms: _528  and  _529
REMARK  203  A    between atoms: _532  and  _534
REMARK  204  A    between atoms: _534  and  _535
REMARK  205  A    between atoms: _534  and  _537
REMARK  206  A    between atoms: _537  and  _538
REMARK  207  A    between atoms: _538  and  _539
REMARK  208  A    between atoms: _542  and  _544
REMARK  209  A    between atoms: _544  and  _545
REMARK  210  A    between atoms: _544  and  _547
REMARK  211  A    between atoms: _547  and  _548
REMARK  212  A    between atoms: _551  and  _553
REMARK  213  A    between atoms: _553  and  _554
REMARK  214  A    between atoms: _553  and  _556
REMARK  215  A    between atoms: _556  and  _557
REMARK  216  A    between atoms: _557  and  _558
REMARK  217  A    between atoms: _561  and  _563
REMARK  218  A    between atoms: _563  and  _564
REMARK  219  A    between atoms: _563  and  _566
REMARK  220  A    between atoms: _566  and  _567
REMARK  221  A    between atoms: _573  and  _575
REMARK  222  A    between atoms: _575  and  _576
REMARK  223  A    between atoms: _575  and  _578
REMARK  224  A    between atoms: _578  and  _579
REMARK  225  A    between atoms: _579  and  _580
REMARK  226  A    between atoms: _583  and  _585
REMARK  227  A    between atoms: _585  and  _586
REMARK  228  A    between atoms: _585  and  _588
REMARK  229  A    between atoms: _591  and  _593
REMARK  230  A    between atoms: _593  and  _594
REMARK  231  A    between atoms: _593  and  _596
REMARK                            x       y       z     vdW  Elec       q    Type
REMARK                         _______ _______ _______ _____ _____    ______ ____
ROOT
ATOM      1  CA  CYS A   1      13.592  -2.722  17.287  0.00  0.00    +0.145 C 
ENDROOT
BRANCH   1   2
ATOM      2  N   CYS A   1      14.596  -2.216  18.240  0.00  0.00    -0.238 NA
ATOM      3  H   CYS A   1      15.524  -1.900  17.892  0.00  0.00    +0.142 HD
ENDBRANCH   1   2
BRANCH   1   4
ATOM      4  C   CYS A   1      13.497  -4.232  17.354  0.00  0.00    +0.225 C 
ATOM      5  O   CYS A   1      14.493  -4.946  17.559  0.00  0.00    -0.287 OA
ENDBRANCH   1   4
BRANCH   1   6
ATOM      6  CB  CYS A   1      13.877  -2.362  15.856  0.00  0.00    +0.094 C 
ATOM      7  SG  CYS A   1      13.766  -0.581  15.515  0.00  0.00    -0.080 S 
ENDBRANCH   1   6
TORSDOF 3
REMARK  Name = ../refined-set-2016/4x5z/4x5z_pocket.pdb
REMARK  231 active torsions:
REMARK  status: ('A' for Active; 'I' for Inactive)
REMARK    1  A    between atoms: _1  and  _3
REMARK    2  A    between atoms: _3  and  _4
REMARK    3  A    between atoms: _3  and  _6
REMARK    4  A    between atoms: _6  and  _7
REMARK    5  A    between atoms: _10  and  _12
REMARK    6  A    between atoms: _12  and  _13
REMARK    7  A    between atoms: _12  and  _15
REMARK    8  A    between atoms: _15  and  _16
REMARK    9  A    between atoms: _18  and  _20
REMARK   10  A    between atoms: _20  and  _21
REMARK   11  A    between atoms: _20  and  _23
REMARK   12  A    between atoms: _23  and  _24
REMARK   13  A    between atoms: _26  and  _28
REMARK   14  A    between atoms: _28  and  _29
REMARK   15  A    between atoms: _31  and  _33
REMARK   16  A    between atoms: _33  and  _34
REMARK   17  A    between atoms: _37  and  _39
REMARK   18  A    between atoms: _39  and  _40
REMARK   19  A    between atoms: _39  and  _42
REMARK   20  A    between atoms: _42  and  _43
REMARK   21  A    between atoms: _49  and  _51
REMARK   22  A    between atoms: _51  and  _52
REMARK   23  A    between atoms: _51  and  _54
REMARK   24  A    between atoms: _54  and  _55
REMARK   25  A    between atoms: _58  and  _60
REMARK   26  A    between atoms: _60  and  _61
REMARK   27  A    between atoms: _64  and  _66
REMARK   28  A    between atoms: _66  and  _67
REMARK   29  A    between atoms: _66  and  _69
REMARK   30  A    between atoms: _69  and  _70
REMARK   31  A    between atoms: _73  and  _75
REMARK   32  A    between atoms: _75  and  _76
REMARK   33  A    between atoms: _75  and  _78
REMARK   34  A    between atoms: _78  and  _79
REMARK   35  A    between atoms: _81  and  _83
REMARK   36  A    between atoms: _83  and  _84
REMARK   37  A    between atoms: _83  and  _86
REMARK   38  A    between atoms: _86  and  _87
REMARK   39  A    between atoms: _87  and  _88
REMARK   40  A    between atoms: _91  and  _93
REMARK   41  A    between atoms: _93  and  _94
REMARK   42  A    between atoms: _93  and  _96
REMARK   43  A    between atoms: _96  and  _97
REMARK   44  A    between atoms: _100  and  _102
REMARK   45  A    between atoms: _102  and  _103
REMARK   46  A    between atoms: _102  and  _105
REMARK   47  A    between atoms: _105  and  _106
REMARK   48  A    between atoms: _111  and  _113
REMARK   49  A    between atoms: _113  and  _114
REMARK   50  A    between atoms: _117  and  _119
REMARK   51  A    between atoms: _119  and  _120
REMARK   52  A    between atoms: _119  and  _122
REMARK   53  A    between atoms: _122  and  _123
REMARK   54  A    between atoms: _133  and  _135
REMARK   55  A    between atoms: _135  and  _136
REMARK   56  A    between atoms: _135  and  _138
REMARK   57  A    between atoms: _138  and  _139
REMARK   58  A    between atoms: _142  and  _144
REMARK   59  A    between atoms: _144  and  _145
REMARK   60  A    between atoms: _144  and  _147
REMARK   61  A    between atoms: _147  and  _148
REMARK   62  A    between atoms: _158  and  _160
REMARK   63  A    between atoms: _160  and  _161
REMARK   64  A    between atoms: _160  and  _163
REMARK   65  A    between atoms: _163  and  _164
REMARK   66  A    between atoms: _169  and  _171
REMARK   67  A    between atoms: _171  and  _172
REMARK   68  A    between atoms: _174  and  _176
REMARK   69  A    between atoms: _176  and  _177
REMARK   70  A    between atoms: _176  and  _179
REMARK   71  A    between atoms: _179  and  _180
REMARK   72  A    between atoms: _190  and  _192
REMARK   73  A    between atoms: _192  and  _193
REMARK   74  A    between atoms: _192  and  _195
REMARK   75  A    between atoms: _195  and  _196
REMARK   76  A    between atoms: _199  and  _201
REMARK   77  A    between atoms: _201  and  _202
REMARK   78  A    between atoms: _201  and  _204
REMARK   79  A    between atoms: _204  and  _205
REMARK   80  A    between atoms: _205  and  _206
REMARK   81  A    between atoms: _208  and  _210
REMARK   82  A    between atoms: _210  and  _211
REMARK   83  A    between atoms: _210  and  _213
REMARK   84  A    between atoms: _215  and  _217
REMARK   85  A    between atoms: _217  and  _218
REMARK   86  A    between atoms: _221  and  _223
REMARK   87  A    between atoms: _223  and  _224
REMARK   88  A    between atoms: _223  and  _226
REMARK   89  A    between atoms: _226  and  _227
REMARK   90  A    between atoms: _233  and  _235
REMARK   91  A    between atoms: _235  and  _236
REMARK   92  A    between atoms: _235  and  _238
REMARK   93  A    between atoms: _238  and  _239
REMARK   94  A    between atoms: _239  and  _240
REMARK   95  A    between atoms: _242  and  _244
REMARK   96  A    between atoms: _244  and  _245
REMARK   97  A    between atoms: _244  and  _247
REMARK   98  A    between atoms: _250  and  _252
REMARK   99  A    between atoms: _252  and  _253
REMARK  100  A    between atoms: _252  and  _255
REMARK  101  A    between atoms: _257  and  _259
REMARK  102  A    between atoms: _259  and  _260
REMARK  103  A    between atoms: _263  and  _265
REMARK  104  A    between atoms: _265  and  _266
REMARK  105  A    between atoms: _265  and  _268
REMARK  106  A    between atoms: _268  and  _269
REMARK  107  A    between atoms: _269  and  _270
REMARK  108  A    between atoms: _275  and  _277
REMARK  109  A    between atoms: _277  and  _278
REMARK  110  A    between atoms: _277  and  _280
REMARK  111  A    between atoms: _280  and  _281
REMARK  112  A    between atoms: _286  and  _287
REMARK  113  A    between atoms: _290  and  _291
REMARK  114  A    between atoms: _296  and  _298
REMARK  115  A    between atoms: _298  and  _299
REMARK  116  A    between atoms: _298  and  _301
REMARK  117  A    between atoms: _301  and  _302
REMARK  118  A    between atoms: _302  and  _303
REMARK  119  A    between atoms: _305  and  _307
REMARK  120  A    between atoms: _307  and  _308
REMARK  121  A    between atoms: _311  and  _313
REMARK  122  A    between atoms: _313  and  _314
REMARK  123  A    between atoms: _313  and  _316
REMARK  124  A    between atoms: _316  and  _317
REMARK  125  A    between atoms: _320  and  _322
REMARK  126  A    between atoms: _322  and  _323
REMARK  127  A    between atoms: _325  and  _327
REMARK  128  A    between atoms: _327  and  _328
REMARK  129  A    between atoms: _327  and  _330
REMARK  130  A    between atoms: _330  and  _331
REMARK  131  A    between atoms: _336  and  _338
REMARK  132  A    between atoms: _338  and  _339
REMARK  133  A    between atoms: _338  and  _341
REMARK  134  A    between atoms: _341  and  _342
REMARK  135  A    between atoms: _345  and  _347
REMARK  136  A    between atoms: _347  and  _348
REMARK  137  A    between atoms: _347  and  _350
REMARK  138  A    between atoms: _350  and  _351
REMARK  139  A    between atoms: _356  and  _357
REMARK  140  A    between atoms: _359  and  _361
REMARK  141  A    between atoms: _361  and  _362
REMARK  142  A    between atoms: _361  and  _364
REMARK  143  A    between atoms: _364  and  _365
REMARK  144  A    between atoms: _368  and  _370
REMARK  145  A    between atoms: _370  and  _371
REMARK  146  A    between atoms: _370  and  _373
REMARK  147  A    between atoms: _373  and  _374
REMARK  148  A    between atoms: _379  and  _380
REMARK  149  A    between atoms: _383  and  _384
REMARK  150  A    between atoms: _389  and  _391
REMARK  151  A    between atoms: _391  and  _392
REMARK  152  A    between atoms: _391  and  _394
REMARK  153  A    between atoms: _394  and  _395
REMARK  154  A    between atoms: _400  and  _401
REMARK  155  A    between atoms: _403  and  _405
REMARK  156  A    between atoms: _405  and  _406
REMARK  157  A    between atoms: _405  and  _408
REMARK  158  A    between atoms: _408  and  _409
REMARK  159  A    between atoms: _409  and  _410
REMARK  160  A    between atoms: _412  and  _414
REMARK  161  A    between atoms: _414  and  _415
REMARK  162  A    between atoms: _414  and  _417
REMARK  163  A    between atoms: _417  and  _418
REMARK  164  A    between atoms: _423  and  _424
REMARK  165  A    between atoms: _426  and  _428
REMARK  166  A    between atoms: _428  and  _429
REMARK  167  A    between atoms: _428  and  _431
REMARK  168  A    between atoms: _431  and  _432
REMARK  169  A    between atoms: _435  and  _437
REMARK  170  A    between atoms: _437  and  _438
REMARK  171  A    between atoms: _441  and  _443
REMARK  172  A    between atoms: _443  and  _444
REMARK  173  A    between atoms: _446  and  _448
REMARK  174  A    between atoms: _448  and  _449
REMARK  175  A    between atoms: _448  and  _451
REMARK  176  A    between atoms: _451  and  _452
REMARK  177  A    between atoms: _457  and  _458
REMARK  178  A    between atoms: _460  and  _462
REMARK  179  A    between atoms: _462  and  _463
REMARK  180  A    between atoms: _462  and  _465
REMARK  181  A    between atoms: _465  and  _466
REMARK  182  A    between atoms: _471  and  _473
REMARK  183  A    between atoms: _473  and  _474
REMARK  184  A    between atoms: _473  and  _476
REMARK  185  A    between atoms: _478  and  _480
REMARK  186  A    between atoms: _480  and  _481
REMARK  187  A    between atoms: _480  and  _483
REMARK  188  A    between atoms: _483  and  _484
REMARK  189  A    between atoms: _484  and  _485
REMARK  190  A    between atoms: _485  and  _486
REMARK  191  A    between atoms: _495  and  _497
REMARK  192  A    between atoms: _497  and  _498
REMARK  193  A    between atoms: _501  and  _503
REMARK  194  A    between atoms: _503  and  _504
REMARK  195  A    between atoms: _507  and  _509
REMARK  196  A    between atoms: _509  and  _510
REMARK  197  A    between atoms: _509  and  _512
REMARK  198  A    between atoms: _512  and  _513
REMARK  199  A    between atoms: _523  and  _525
REMARK  200  A    between atoms: _525  and  _526
REMARK  201  A    between atoms: _525  and  _528
REMARK  202  A    between atoms: _528  and  _529
REMARK  203  A    between atoms: _532  and  _534
REMARK  204  A    between atoms: _534  and  _535
REMARK  205  A    between atoms: _534  and  _537
REMARK  206  A    between atoms: _537  and  _538
REMARK  207  A    between atoms: _538  and  _539
REMARK  208  A    between atoms: _542  and  _544
REMARK  209  A    between atoms: _544  and  _545
REMARK  210  A    between atoms: _544  and  _547
REMARK  211  A    between atoms: _547  and  _548
REMARK  212  A    between atoms: _551  and  _553
REMARK  213  A    between atoms: _553  and  _554
REMARK  214  A    between atoms: _553  and  _556
REMARK  215  A    between atoms: _556  and  _557
REMARK  216  A    between atoms: _557  and  _558
REMARK  217  A    between atoms: _561  and  _563
REMARK  218  A    between atoms: _563  and  _564
REMARK  219  A    between atoms: _563  and  _566
REMARK  220  A    between atoms: _566  and  _567
REMARK  221  A    between atoms: _573  and  _575
REMARK  222  A    between atoms: _575  and  _576
REMARK  223  A    between atoms: _575  and  _578
REMARK  224  A    between atoms: _578  and  _579
REMARK  225  A    between atoms: _579  and  _580
REMARK  226  A    between atoms: _583  and  _585
REMARK  227  A    between atoms: _585  and  _586
REMARK  228  A    between atoms: _585  and  _588
REMARK  229  A    between atoms: _591  and  _593
REMARK  230  A    between atoms: _593  and  _594
REMARK  231  A    between atoms: _593  and  _596
REMARK                            x       y       z     vdW  Elec       q    Type
REMARK                         _______ _______ _______ _____ _____    ______ ____
ROOT
ATOM      1  CA  MET A   3      12.045   1.163   6.197  0.00  0.00    +0.149 C 
ENDROOT
BRANCH   1   4
ATOM      2  C   PHE A   2      11.753   2.143   8.409  0.00  0.00    +0.241 C 
ATOM      3  O   PHE A   2      11.912   3.250   7.949  0.00  0.00    -0.273 OA
ATOM      4  N   MET A   3      11.839   1.054   7.652  0.00  0.00    -0.297 N 
ATOM      5  H   MET A   3      11.760   0.115   8.091  0.00  0.00    +0.150 HD
BRANCH   2   6
ATOM      6  CA  PHE A   2      11.556   1.962   9.929  0.00  0.00    +0.153 C 
BRANCH   6   8
ATOM      7  C   ALA A   1       9.247   1.273   9.851  0.00  0.00    +0.238 C 
ATOM      8  N   PHE A   2      10.500   1.018  10.221  0.00  0.00    -0.297 N 
ATOM      9  H   PHE A   2      10.721   0.134  10.723  0.00  0.00    +0.150 HD
ATOM     10  O   ALA A   1       8.929   2.319   9.247  0.00  0.00    -0.274 OA
BRANCH   7  11
ATOM     11  CA  ALA A   1       8.206   0.186  10.165  0.00  0.00    +0.145 C 
ATOM     12  CB  ALA A   1       7.638   0.354  11.562  0.00  0.00    +0.028 C 
BRANCH  11  13
ATOM     13  N   ALA A   1       8.759  -1.182   9.973  0.00  0.00    -0.238 NA
ATOM     14  H   ALA A   1       8.782  -1.838  10.780  0.00  0.00    +0.142 HD
ENDBRANCH  11  13
ENDBRANCH   7  11
ENDBRANCH   6   8
BRANCH   6  15
ATOM     15  CB  PHE A   2      12.863   1.530  10.574  0.00  0.00    +0.055 C 
BRANCH  15  16
ATOM     16  CG  PHE A   2      14.075   2.289  10.082  0.00  0.00    -0.020 A 
ATOM     17  CD2 PHE A   2      14.457   3.477  10.680  0.00  0.00    -0.004 A 
ATOM     18  CE2 PHE A   2      15.544   4.178  10.221  0.00  0.00    -0.000 A 
ATOM     19  CZ  PHE A   2      16.299   3.689   9.159  0.00  0.00    -0.000 A 
ATOM     20  CE1 PHE A   2      15.988   2.458   8.585  0.00  0.00    -0.000 A 
ATOM     21  CD1 PHE A   2      14.847   1.787   9.038  0.00  0.00    -0.004 A 
ENDBRANCH  15  16
ENDBRANCH   6  15
ENDBRANCH   2   6
ENDBRANCH   1   4
BRANCH   1  22
ATOM     22  C   MET A   3      10.837   1.841   5.548  0.00  0.00    +0.241 C 
ATOM     23  N   VAL A   4       9.666   1.654   6.122  0.00  0.00    -0.297 N 
ATOM     24  H   VAL A   4       9.567   1.016   6.937  0.00  0.00    +0.150 HD
ATOM     25  O   MET A   3      10.951   2.516   4.533  0.00  0.00    -0.273 OA
BRANCH  23  26
ATOM     26  CA  VAL A   4       8.492   2.378   5.575  0.00  0.00    +0.149 C 
BRANCH  26  27
ATOM     27  C   VAL A   4       8.533   3.897   5.864  0.00  0.00    +0.241 C 
ATOM     28  N   CYS A   5       8.936   4.275   7.082  0.00  0.00    -0.296 N 
ATOM     29  H   CYS A   5       9.097   3.547   7.807  0.00  0.00    +0.150 HD
ATOM     30  O   VAL A   4       8.241   4.707   4.975  0.00  0.00    -0.273 OA
BRANCH  28  31
ATOM     31  CA  CYS A   5       9.162   5.705   7.433  0.00  0.00    +0.160 C 
BRANCH  31  32
ATOM     32  C   CYS A   5      10.238   6.287   6.524  0.00  0.00    +0.242 C 
ATOM     33  O   CYS A   5      10.198   7.479   6.194  0.00  0.00    -0.273 OA
ATOM     34  N   ALA A   6      11.192   5.441   6.145  0.00  0.00    -0.298 N 
ATOM     35  H   ALA A   6      11.116   4.442   6.425  0.00  0.00    +0.150 HD
BRANCH  34  36
ATOM     36  CA  ALA A   6      12.352   5.867   5.344  0.00  0.00    +0.137 C 
ATOM     37  CB  ALA A   6      13.530   4.887   5.460  0.00  0.00    +0.030 C 
BRANCH  36  38
ATOM     38  C   ALA A   6      12.017   6.081   3.854  0.00  0.00    +0.227 C 
ATOM     39  O   ALA A   6      12.834   6.626   3.143  0.00  0.00    -0.286 OA
ENDBRANCH  36  38
ENDBRANCH  34  36
ENDBRANCH  31  32
BRANCH  31  40
ATOM     40  CB  CYS A   5       9.597   5.900   8.901  0.00  0.00    +0.098 C 
ATOM     41  SG  CYS A   5       8.250   5.560  10.071  0.00  0.00    -0.080 S 
ENDBRANCH  31  40
ENDBRANCH  28  31
ENDBRANCH  26  27
BRANCH  26  42
ATOM     42  CB  VAL A   4       7.208   1.765   6.154  0.00  0.00    +0.027 C 
ATOM     43  CG2 VAL A   4       6.015   2.642   5.837  0.00  0.00    +0.002 C 
ATOM     44  CG1 VAL A   4       7.000   0.322   5.648  0.00  0.00    +0.002 C 
ENDBRANCH  26  42
ENDBRANCH  23  26
ENDBRANCH   1  22
BRANCH   1  45
ATOM     45  CB  MET A   3      12.278  -0.200   5.539  0.00  0.00    +0.041 C 
BRANCH  45  46
ATOM     46  CG  MET A   3      11.071  -1.022   5.169  0.00  0.00    +0.060 C 
BRANCH  46  47
ATOM     47  SD  MET A   3      11.491  -2.483   4.168  0.00  0.00    -0.139 S 
ATOM     48  CE  MET A   3      12.014  -3.540   5.505  0.00  0.00    +0.069 C 
ENDBRANCH  46  47
ENDBRANCH  45  46
ENDBRANCH   1  45
TORSDOF 19
REMARK  Name = ../refined-set-2016/4x5z/4x5z_pocket.pdb
REMARK  231 active torsions:
REMARK  status: ('A' for Active; 'I' for Inactive)
REMARK    1  A    between atoms: _1  and  _3
REMARK    2  A    between atoms: _3  and  _4
REMARK    3  A    between atoms: _3  and  _6
REMARK    4  A    between atoms: _6  and  _7
REMARK    5  A    between atoms: _10  and  _12
REMARK    6  A    between atoms: _12  and  _13
REMARK    7  A    between atoms: _12  and  _15
REMARK    8  A    between atoms: _15  and  _16
REMARK    9  A    between atoms: _18  and  _20
REMARK   10  A    between atoms: _20  and  _21
REMARK   11  A    between atoms: _20  and  _23
REMARK   12  A    between atoms: _23  and  _24
REMARK   13  A    between atoms: _26  and  _28
REMARK   14  A    between atoms: _28  and  _29
REMARK   15  A    between atoms: _31  and  _33
REMARK   16  A    between atoms: _33  and  _34
REMARK   17  A    between atoms: _37  and  _39
REMARK   18  A    between atoms: _39  and  _40
REMARK   19  A    between atoms: _39  and  _42
REMARK   20  A    between atoms: _42  and  _43
REMARK   21  A    between atoms: _49  and  _51
REMARK   22  A    between atoms: _51  and  _52
REMARK   23  A    between atoms: _51  and  _54
REMARK   24  A    between atoms: _54  and  _55
REMARK   25  A    between atoms: _58  and  _60
REMARK   26  A    between atoms: _60  and  _61
REMARK   27  A    between atoms: _64  and  _66
REMARK   28  A    between atoms: _66  and  _67
REMARK   29  A    between atoms: _66  and  _69
REMARK   30  A    between atoms: _69  and  _70
REMARK   31  A    between atoms: _73  and  _75
REMARK   32  A    between atoms: _75  and  _76
REMARK   33  A    between atoms: _75  and  _78
REMARK   34  A    between atoms: _78  and  _79
REMARK   35  A    between atoms: _81  and  _83
REMARK   36  A    between atoms: _83  and  _84
REMARK   37  A    between atoms: _83  and  _86
REMARK   38  A    between atoms: _86  and  _87
REMARK   39  A    between atoms: _87  and  _88
REMARK   40  A    between atoms: _91  and  _93
REMARK   41  A    between atoms: _93  and  _94
REMARK   42  A    between atoms: _93  and  _96
REMARK   43  A    between atoms: _96  and  _97
REMARK   44  A    between atoms: _100  and  _102
REMARK   45  A    between atoms: _102  and  _103
REMARK   46  A    between atoms: _102  and  _105
REMARK   47  A    between atoms: _105  and  _106
REMARK   48  A    between atoms: _111  and  _113
REMARK   49  A    between atoms: _113  and  _114
REMARK   50  A    between atoms: _117  and  _119
REMARK   51  A    between atoms: _119  and  _120
REMARK   52  A    between atoms: _119  and  _122
REMARK   53  A    between atoms: _122  and  _123
REMARK   54  A    between atoms: _133  and  _135
REMARK   55  A    between atoms: _135  and  _136
REMARK   56  A    between atoms: _135  and  _138
REMARK   57  A    between atoms: _138  and  _139
REMARK   58  A    between atoms: _142  and  _144
REMARK   59  A    between atoms: _144  and  _145
REMARK   60  A    between atoms: _144  and  _147
REMARK   61  A    between atoms: _147  and  _148
REMARK   62  A    between atoms: _158  and  _160
REMARK   63  A    between atoms: _160  and  _161
REMARK   64  A    between atoms: _160  and  _163
REMARK   65  A    between atoms: _163  and  _164
REMARK   66  A    between atoms: _169  and  _171
REMARK   67  A    between atoms: _171  and  _172
REMARK   68  A    between atoms: _174  and  _176
REMARK   69  A    between atoms: _176  and  _177
REMARK   70  A    between atoms: _176  and  _179
REMARK   71  A    between atoms: _179  and  _180
REMARK   72  A    between atoms: _190  and  _192
REMARK   73  A    between atoms: _192  and  _193
REMARK   74  A    between atoms: _192  and  _195
REMARK   75  A    between atoms: _195  and  _196
REMARK   76  A    between atoms: _199  and  _201
REMARK   77  A    between atoms: _201  and  _202
REMARK   78  A    between atoms: _201  and  _204
REMARK   79  A    between atoms: _204  and  _205
REMARK   80  A    between atoms: _205  and  _206
REMARK   81  A    between atoms: _208  and  _210
REMARK   82  A    between atoms: _210  and  _211
REMARK   83  A    between atoms: _210  and  _213
REMARK   84  A    between atoms: _215  and  _217
REMARK   85  A    between atoms: _217  and  _218
REMARK   86  A    between atoms: _221  and  _223
REMARK   87  A    between atoms: _223  and  _224
REMARK   88  A    between atoms: _223  and  _226
REMARK   89  A    between atoms: _226  and  _227
REMARK   90  A    between atoms: _233  and  _235
REMARK   91  A    between atoms: _235  and  _236
REMARK   92  A    between atoms: _235  and  _238
REMARK   93  A    between atoms: _238  and  _239
REMARK   94  A    between atoms: _239  and  _240
REMARK   95  A    between atoms: _242  and  _244
REMARK   96  A    between atoms: _244  and  _245
REMARK   97  A    between atoms: _244  and  _247
REMARK   98  A    between atoms: _250  and  _252
REMARK   99  A    between atoms: _252  and  _253
REMARK  100  A    between atoms: _252  and  _255
REMARK  101  A    between atoms: _257  and  _259
REMARK  102  A    between atoms: _259  and  _260
REMARK  103  A    between atoms: _263  and  _265
REMARK  104  A    between atoms: _265  and  _266
REMARK  105  A    between atoms: _265  and  _268
REMARK  106  A    between atoms: _268  and  _269
REMARK  107  A    between atoms: _269  and  _270
REMARK  108  A    between atoms: _275  and  _277
REMARK  109  A    between atoms: _277  and  _278
REMARK  110  A    between atoms: _277  and  _280
REMARK  111  A    between atoms: _280  and  _281
REMARK  112  A    between atoms: _286  and  _287
REMARK  113  A    between atoms: _290  and  _291
REMARK  114  A    between atoms: _296  and  _298
REMARK  115  A    between atoms: _298  and  _299
REMARK  116  A    between atoms: _298  and  _301
REMARK  117  A    between atoms: _301  and  _302
REMARK  118  A    between atoms: _302  and  _303
REMARK  119  A    between atoms: _305  and  _307
REMARK  120  A    between atoms: _307  and  _308
REMARK  121  A    between atoms: _311  and  _313
REMARK  122  A    between atoms: _313  and  _314
REMARK  123  A    between atoms: _313  and  _316
REMARK  124  A    between atoms: _316  and  _317
REMARK  125  A    between atoms: _320  and  _322
REMARK  126  A    between atoms: _322  and  _323
REMARK  127  A    between atoms: _325  and  _327
REMARK  128  A    between atoms: _327  and  _328
REMARK  129  A    between atoms: _327  and  _330
REMARK  130  A    between atoms: _330  and  _331
REMARK  131  A    between atoms: _336  and  _338
REMARK  132  A    between atoms: _338  and  _339
REMARK  133  A    between atoms: _338  and  _341
REMARK  134  A    between atoms: _341  and  _342
REMARK  135  A    between atoms: _345  and  _347
REMARK  136  A    between atoms: _347  and  _348
REMARK  137  A    between atoms: _347  and  _350
REMARK  138  A    between atoms: _350  and  _351
REMARK  139  A    between atoms: _356  and  _357
REMARK  140  A    between atoms: _359  and  _361
REMARK  141  A    between atoms: _361  and  _362
REMARK  142  A    between atoms: _361  and  _364
REMARK  143  A    between atoms: _364  and  _365
REMARK  144  A    between atoms: _368  and  _370
REMARK  145  A    between atoms: _370  and  _371
REMARK  146  A    between atoms: _370  and  _373
REMARK  147  A    between atoms: _373  and  _374
REMARK  148  A    between atoms: _379  and  _380
REMARK  149  A    between atoms: _383  and  _384
REMARK  150  A    between atoms: _389  and  _391
REMARK  151  A    between atoms: _391  and  _392
REMARK  152  A    between atoms: _391  and  _394
REMARK  153  A    between atoms: _394  and  _395
REMARK  154  A    between atoms: _400  and  _401
REMARK  155  A    between atoms: _403  and  _405
REMARK  156  A    between atoms: _405  and  _406
REMARK  157  A    between atoms: _405  and  _408
REMARK  158  A    between atoms: _408  and  _409
REMARK  159  A    between atoms: _409  and  _410
REMARK  160  A    between atoms: _412  and  _414
REMARK  161  A    between atoms: _414  and  _415
REMARK  162  A    between atoms: _414  and  _417
REMARK  163  A    between atoms: _417  and  _418
REMARK  164  A    between atoms: _423  and  _424
REMARK  165  A    between atoms: _426  and  _428
REMARK  166  A    between atoms: _428  and  _429
REMARK  167  A    between atoms: _428  and  _431
REMARK  168  A    between atoms: _431  and  _432
REMARK  169  A    between atoms: _435  and  _437
REMARK  170  A    between atoms: _437  and  _438
REMARK  171  A    between atoms: _441  and  _443
REMARK  172  A    between atoms: _443  and  _444
REMARK  173  A    between atoms: _446  and  _448
REMARK  174  A    between atoms: _448  and  _449
REMARK  175  A    between atoms: _448  and  _451
REMARK  176  A    between atoms: _451  and  _452
REMARK  177  A    between atoms: _457  and  _458
REMARK  178  A    between atoms: _460  and  _462
REMARK  179  A    between atoms: _462  and  _463
REMARK  180  A    between atoms: _462  and  _465
REMARK  181  A    between atoms: _465  and  _466
REMARK  182  A    between atoms: _471  and  _473
REMARK  183  A    between atoms: _473  and  _474
REMARK  184  A    between atoms: _473  and  _476
REMARK  185  A    between atoms: _478  and  _480
REMARK  186  A    between atoms: _480  and  _481
REMARK  187  A    between atoms: _480  and  _483
REMARK  188  A    between atoms: _483  and  _484
REMARK  189  A    between atoms: _484  and  _485
REMARK  190  A    between atoms: _485  and  _486
REMARK  191  A    between atoms: _495  and  _497
REMARK  192  A    between atoms: _497  and  _498
REMARK  193  A    between atoms: _501  and  _503
REMARK  194  A    between atoms: _503  and  _504
REMARK  195  A    between atoms: _507  and  _509
REMARK  196  A    between atoms: _509  and  _510
REMARK  197  A    between atoms: _509  and  _512
REMARK  198  A    between atoms: _512  and  _513
REMARK  199  A    between atoms: _523  and  _525
REMARK  200  A    between atoms: _525  and  _526
REMARK  201  A    between atoms: _525  and  _528
REMARK  202  A    between atoms: _528  and  _529
REMARK  203  A    between atoms: _532  and  _534
REMARK  204  A    between atoms: _534  and  _535
REMARK  205  A    between atoms: _534  and  _537
REMARK  206  A    between atoms: _537  and  _538
REMARK  207  A    between atoms: _538  and  _539
REMARK  208  A    between atoms: _542  and  _544
REMARK  209  A    between atoms: _544  and  _545
REMARK  210  A    between atoms: _544  and  _547
REMARK  211  A    between atoms: _547  and  _548
REMARK  212  A    between atoms: _551  and  _553
REMARK  213  A    between atoms: _553  and  _554
REMARK  214  A    between atoms: _553  and  _556
REMARK  215  A    between atoms: _556  and  _557
REMARK  216  A    between atoms: _557  and  _558
REMARK  217  A    between atoms: _561  and  _563
REMARK  218  A    between atoms: _563  and  _564
REMARK  219  A    between atoms: _563  and  _566
REMARK  220  A    between atoms: _566  and  _567
REMARK  221  A    between atoms: _573  and  _575
REMARK  222  A    between atoms: _575  and  _576
REMARK  223  A    between atoms: _575  and  _578
REMARK  224  A    between atoms: _578  and  _579
REMARK  225  A    between atoms: _579  and  _580
REMARK  226  A    between atoms: _583  and  _585
REMARK  227  A    between atoms: _585  and  _586
REMARK  228  A    between atoms: _585  and  _588
REMARK  229  A    between atoms: _591  and  _593
REMARK  230  A    between atoms: _593  and  _594
REMARK  231  A    between atoms: _593  and  _596
REMARK                            x       y       z     vdW  Elec       q    Type
REMARK                         _______ _______ _______ _____ _____    ______ ____
ROOT
ATOM      1  CB  GLN A   1       4.576   6.241   2.681  0.00  0.00    +0.035 C 
ENDROOT
BRANCH   1   2
ATOM      2  CA  GLN A   1       3.712   4.950   2.599  0.00  0.00    +0.134 C 
BRANCH   2   3
ATOM      3  N   GLN A   1       3.243   4.754   1.227  0.00  0.00    -0.239 NA
ATOM      4  H   GLN A   1       3.495   5.452   0.499  0.00  0.00    +0.142 HD
ENDBRANCH   2   3
BRANCH   2   5
ATOM      5  C   GLN A   1       2.569   4.970   3.605  0.00  0.00    +0.224 C 
ATOM      6  O   GLN A   1       2.626   4.355   4.664  0.00  0.00    -0.287 OA
ENDBRANCH   2   5
ENDBRANCH   1   2
BRANCH   1   7
ATOM      7  CG  GLN A   1       5.202   6.474   4.037  0.00  0.00    +0.087 C 
BRANCH   7   8
ATOM      8  CD  GLN A   1       6.127   7.671   4.071  0.00  0.00    +0.219 C 
ATOM      9  NE2 GLN A   1       7.366   7.461   4.515  0.00  0.00    -0.329 N 
ATOM     10 HE21 GLN A   1       7.656   6.509   4.816  0.00  0.00    +0.145 HD
ATOM     11 HE22 GLN A   1       8.043   8.249   4.561  0.00  0.00    +0.145 HD
ATOM     12  OE1 GLN A   1       5.734   8.772   3.705  0.00  0.00    -0.275 OA
ENDBRANCH   7   8
ENDBRANCH   1   7
TORSDOF 5
REMARK  Name = ../refined-set-2016/4x5z/4x5z_pocket.pdb
REMARK  231 active torsions:
REMARK  status: ('A' for Active; 'I' for Inactive)
REMARK    1  A    between atoms: _1  and  _3
REMARK    2  A    between atoms: _3  and  _4
REMARK    3  A    between atoms: _3  and  _6
REMARK    4  A    between atoms: _6  and  _7
REMARK    5  A    between atoms: _10  and  _12
REMARK    6  A    between atoms: _12  and  _13
REMARK    7  A    between atoms: _12  and  _15
REMARK    8  A    between atoms: _15  and  _16
REMARK    9  A    between atoms: _18  and  _20
REMARK   10  A    between atoms: _20  and  _21
REMARK   11  A    between atoms: _20  and  _23
REMARK   12  A    between atoms: _23  and  _24
REMARK   13  A    between atoms: _26  and  _28
REMARK   14  A    between atoms: _28  and  _29
REMARK   15  A    between atoms: _31  and  _33
REMARK   16  A    between atoms: _33  and  _34
REMARK   17  A    between atoms: _37  and  _39
REMARK   18  A    between atoms: _39  and  _40
REMARK   19  A    between atoms: _39  and  _42
REMARK   20  A    between atoms: _42  and  _43
REMARK   21  A    between atoms: _49  and  _51
REMARK   22  A    between atoms: _51  and  _52
REMARK   23  A    between atoms: _51  and  _54
REMARK   24  A    between atoms: _54  and  _55
REMARK   25  A    between atoms: _58  and  _60
REMARK   26  A    between atoms: _60  and  _61
REMARK   27  A    between atoms: _64  and  _66
REMARK   28  A    between atoms: _66  and  _67
REMARK   29  A    between atoms: _66  and  _69
REMARK   30  A    between atoms: _69  and  _70
REMARK   31  A    between atoms: _73  and  _75
REMARK   32  A    between atoms: _75  and  _76
REMARK   33  A    between atoms: _75  and  _78
REMARK   34  A    between atoms: _78  and  _79
REMARK   35  A    between atoms: _81  and  _83
REMARK   36  A    between atoms: _83  and  _84
REMARK   37  A    between atoms: _83  and  _86
REMARK   38  A    between atoms: _86  and  _87
REMARK   39  A    between atoms: _87  and  _88
REMARK   40  A    between atoms: _91  and  _93
REMARK   41  A    between atoms: _93  and  _94
REMARK   42  A    between atoms: _93  and  _96
REMARK   43  A    between atoms: _96  and  _97
REMARK   44  A    between atoms: _100  and  _102
REMARK   45  A    between atoms: _102  and  _103
REMARK   46  A    between atoms: _102  and  _105
REMARK   47  A    between atoms: _105  and  _106
REMARK   48  A    between atoms: _111  and  _113
REMARK   49  A    between atoms: _113  and  _114
REMARK   50  A    between atoms: _117  and  _119
REMARK   51  A    between atoms: _119  and  _120
REMARK   52  A    between atoms: _119  and  _122
REMARK   53  A    between atoms: _122  and  _123
REMARK   54  A    between atoms: _133  and  _135
REMARK   55  A    between atoms: _135  and  _136
REMARK   56  A    between atoms: _135  and  _138
REMARK   57  A    between atoms: _138  and  _139
REMARK   58  A    between atoms: _142  and  _144
REMARK   59  A    between atoms: _144  and  _145
REMARK   60  A    between atoms: _144  and  _147
REMARK   61  A    between atoms: _147  and  _148
REMARK   62  A    between atoms: _158  and  _160
REMARK   63  A    between atoms: _160  and  _161
REMARK   64  A    between atoms: _160  and  _163
REMARK   65  A    between atoms: _163  and  _164
REMARK   66  A    between atoms: _169  and  _171
REMARK   67  A    between atoms: _171  and  _172
REMARK   68  A    between atoms: _174  and  _176
REMARK   69  A    between atoms: _176  and  _177
REMARK   70  A    between atoms: _176  and  _179
REMARK   71  A    between atoms: _179  and  _180
REMARK   72  A    between atoms: _190  and  _192
REMARK   73  A    between atoms: _192  and  _193
REMARK   74  A    between atoms: _192  and  _195
REMARK   75  A    between atoms: _195  and  _196
REMARK   76  A    between atoms: _199  and  _201
REMARK   77  A    between atoms: _201  and  _202
REMARK   78  A    between atoms: _201  and  _204
REMARK   79  A    between atoms: _204  and  _205
REMARK   80  A    between atoms: _205  and  _206
REMARK   81  A    between atoms: _208  and  _210
REMARK   82  A    between atoms: _210  and  _211
REMARK   83  A    between atoms: _210  and  _213
REMARK   84  A    between atoms: _215  and  _217
REMARK   85  A    between atoms: _217  and  _218
REMARK   86  A    between atoms: _221  and  _223
REMARK   87  A    between atoms: _223  and  _224
REMARK   88  A    between atoms: _223  and  _226
REMARK   89  A    between atoms: _226  and  _227
REMARK   90  A    between atoms: _233  and  _235
REMARK   91  A    between atoms: _235  and  _236
REMARK   92  A    between atoms: _235  and  _238
REMARK   93  A    between atoms: _238  and  _239
REMARK   94  A    between atoms: _239  and  _240
REMARK   95  A    between atoms: _242  and  _244
REMARK   96  A    between atoms: _244  and  _245
REMARK   97  A    between atoms: _244  and  _247
REMARK   98  A    between atoms: _250  and  _252
REMARK   99  A    between atoms: _252  and  _253
REMARK  100  A    between atoms: _252  and  _255
REMARK  101  A    between atoms: _257  and  _259
REMARK  102  A    between atoms: _259  and  _260
REMARK  103  A    between atoms: _263  and  _265
REMARK  104  A    between atoms: _265  and  _266
REMARK  105  A    between atoms: _265  and  _268
REMARK  106  A    between atoms: _268  and  _269
REMARK  107  A    between atoms: _269  and  _270
REMARK  108  A    between atoms: _275  and  _277
REMARK  109  A    between atoms: _277  and  _278
REMARK  110  A    between atoms: _277  and  _280
REMARK  111  A    between atoms: _280  and  _281
REMARK  112  A    between atoms: _286  and  _287
REMARK  113  A    between atoms: _290  and  _291
REMARK  114  A    between atoms: _296  and  _298
REMARK  115  A    between atoms: _298  and  _299
REMARK  116  A    between atoms: _298  and  _301
REMARK  117  A    between atoms: _301  and  _302
REMARK  118  A    between atoms: _302  and  _303
REMARK  119  A    between atoms: _305  and  _307
REMARK  120  A    between atoms: _307  and  _308
REMARK  121  A    between atoms: _311  and  _313
REMARK  122  A    between atoms: _313  and  _314
REMARK  123  A    between atoms: _313  and  _316
REMARK  124  A    between atoms: _316  and  _317
REMARK  125  A    between atoms: _320  and  _322
REMARK  126  A    between atoms: _322  and  _323
REMARK  127  A    between atoms: _325  and  _327
REMARK  128  A    between atoms: _327  and  _328
REMARK  129  A    between atoms: _327  and  _330
REMARK  130  A    between atoms: _330  and  _331
REMARK  131  A    between atoms: _336  and  _338
REMARK  132  A    between atoms: _338  and  _339
REMARK  133  A    between atoms: _338  and  _341
REMARK  134  A    between atoms: _341  and  _342
REMARK  135  A    between atoms: _345  and  _347
REMARK  136  A    between atoms: _347  and  _348
REMARK  137  A    between atoms: _347  and  _350
REMARK  138  A    between atoms: _350  and  _351
REMARK  139  A    between atoms: _356  and  _357
REMARK  140  A    between atoms: _359  and  _361
REMARK  141  A    between atoms: _361  and  _362
REMARK  142  A    between atoms: _361  and  _364
REMARK  143  A    between atoms: _364  and  _365
REMARK  144  A    between atoms: _368  and  _370
REMARK  145  A    between atoms: _370  and  _371
REMARK  146  A    between atoms: _370  and  _373
REMARK  147  A    between atoms: _373  and  _374
REMARK  148  A    between atoms: _379  and  _380
REMARK  149  A    between atoms: _383  and  _384
REMARK  150  A    between atoms: _389  and  _391
REMARK  151  A    between atoms: _391  and  _392
REMARK  152  A    between atoms: _391  and  _394
REMARK  153  A    between atoms: _394  and  _395
REMARK  154  A    between atoms: _400  and  _401
REMARK  155  A    between atoms: _403  and  _405
REMARK  156  A    between atoms: _405  and  _406
REMARK  157  A    between atoms: _405  and  _408
REMARK  158  A    between atoms: _408  and  _409
REMARK  159  A    between atoms: _409  and  _410
REMARK  160  A    between atoms: _412  and  _414
REMARK  161  A    between atoms: _414  and  _415
REMARK  162  A    between atoms: _414  and  _417
REMARK  163  A    between atoms: _417  and  _418
REMARK  164  A    between atoms: _423  and  _424
REMARK  165  A    between atoms: _426  and  _428
REMARK  166  A    between atoms: _428  and  _429
REMARK  167  A    between atoms: _428  and  _431
REMARK  168  A    between atoms: _431  and  _432
REMARK  169  A    between atoms: _435  and  _437
REMARK  170  A    between atoms: _437  and  _438
REMARK  171  A    between atoms: _441  and  _443
REMARK  172  A    between atoms: _443  and  _444
REMARK  173  A    between atoms: _446  and  _448
REMARK  174  A    between atoms: _448  and  _449
REMARK  175  A    between atoms: _448  and  _451
REMARK  176  A    between atoms: _451  and  _452
REMARK  177  A    between atoms: _457  and  _458
REMARK  178  A    between atoms: _460  and  _462
REMARK  179  A    between atoms: _462  and  _463
REMARK  180  A    between atoms: _462  and  _465
REMARK  181  A    between atoms: _465  and  _466
REMARK  182  A    between atoms: _471  and  _473
REMARK  183  A    between atoms: _473  and  _474
REMARK  184  A    between atoms: _473  and  _476
REMARK  185  A    between atoms: _478  and  _480
REMARK  186  A    between atoms: _480  and  _481
REMARK  187  A    between atoms: _480  and  _483
REMARK  188  A    between atoms: _483  and  _484
REMARK  189  A    between atoms: _484  and  _485
REMARK  190  A    between atoms: _485  and  _486
REMARK  191  A    between atoms: _495  and  _497
REMARK  192  A    between atoms: _497  and  _498
REMARK  193  A    between atoms: _501  and  _503
REMARK  194  A    between atoms: _503  and  _504
REMARK  195  A    between atoms: _507  and  _509
REMARK  196  A    between atoms: _509  and  _510
REMARK  197  A    between atoms: _509  and  _512
REMARK  198  A    between atoms: _512  and  _513
REMARK  199  A    between atoms: _523  and  _525
REMARK  200  A    between atoms: _525  and  _526
REMARK  201  A    between atoms: _525  and  _528
REMARK  202  A    between atoms: _528  and  _529
REMARK  203  A    between atoms: _532  and  _534
REMARK  204  A    between atoms: _534  and  _535
REMARK  205  A    between atoms: _534  and  _537
REMARK  206  A    between atoms: _537  and  _538
REMARK  207  A    between atoms: _538  and  _539
REMARK  208  A    between atoms: _542  and  _544
REMARK  209  A    between atoms: _544  and  _545
REMARK  210  A    between atoms: _544  and  _547
REMARK  211  A    between atoms: _547  and  _548
REMARK  212  A    between atoms: _551  and  _553
REMARK  213  A    between atoms: _553  and  _554
REMARK  214  A    between atoms: _553  and  _556
REMARK  215  A    between atoms: _556  and  _557
REMARK  216  A    between atoms: _557  and  _558
REMARK  217  A    between atoms: _561  and  _563
REMARK  218  A    between atoms: _563  and  _564
REMARK  219  A    between atoms: _563  and  _566
REMARK  220  A    between atoms: _566  and  _567
REMARK  221  A    between atoms: _573  and  _575
REMARK  222  A    between atoms: _575  and  _576
REMARK  223  A    between atoms: _575  and  _578
REMARK  224  A    between atoms: _578  and  _579
REMARK  225  A    between atoms: _579  and  _580
REMARK  226  A    between atoms: _583  and  _585
REMARK  227  A    between atoms: _585  and  _586
REMARK  228  A    between atoms: _585  and  _588
REMARK  229  A    between atoms: _591  and  _593
REMARK  230  A    between atoms: _593  and  _594
REMARK  231  A    between atoms: _593  and  _596
REMARK                            x       y       z     vdW  Elec       q    Type
REMARK                         _______ _______ _______ _____ _____    ______ ____
ROOT
ATOM      1  C   MET A   3       7.159   8.523  13.938  0.00  0.00    +0.241 C 
ATOM      2  N   ALA A   4       6.906   7.214  13.908  0.00  0.00    -0.297 N 
ATOM      3  H   ALA A   4       7.292   6.595  14.649  0.00  0.00    +0.150 HD
ATOM      4  O   MET A   3       6.781   9.289  13.034  0.00  0.00    -0.273 OA
ENDROOT
BRANCH   2   5
ATOM      5  CA  ALA A   4       6.092   6.648  12.843  0.00  0.00    +0.149 C 
ATOM      6  CB  ALA A   4       6.135   5.141  12.862  0.00  0.00    +0.031 C 
BRANCH   5   7
ATOM      7  C   ALA A   4       4.660   7.126  12.954  0.00  0.00    +0.241 C 
ATOM      8  N   LEU A   5       4.177   7.276  14.175  0.00  0.00    -0.297 N 
ATOM      9  H   LEU A   5       4.761   7.011  14.993  0.00  0.00    +0.150 HD
ATOM     10  O   ALA A   4       3.992   7.334  11.928  0.00  0.00    -0.273 OA
BRANCH   8  11
ATOM     11  CA  LEU A   5       2.813   7.817  14.395  0.00  0.00    +0.149 C 
BRANCH  11  12
ATOM     12  C   LEU A   5       2.685   9.258  13.921  0.00  0.00    +0.241 C 
ATOM     13  N   GLY A   6       3.697  10.070  14.176  0.00  0.00    -0.295 N 
ATOM     14  H   GLY A   6       4.490   9.718  14.749  0.00  0.00    +0.150 HD
ATOM     15  O   LEU A   5       1.699   9.624  13.320  0.00  0.00    -0.273 OA
BRANCH  13  16
ATOM     16  CA  GLY A   6       3.740  11.425  13.689  0.00  0.00    +0.176 C 
BRANCH  16  17
ATOM     17  C   GLY A   6       3.806  11.489  12.167  0.00  0.00    +0.243 C 
ATOM     18  O   GLY A   6       3.092  12.302  11.553  0.00  0.00    -0.273 OA
ATOM     19  N   ASN A   7       4.673  10.673  11.542  0.00  0.00    -0.298 N 
ATOM     20  H   ASN A   7       5.338  10.118  12.118  0.00  0.00    +0.150 HD
BRANCH  19  21
ATOM     21  CA  ASN A   7       4.722  10.530  10.054  0.00  0.00    +0.146 C 
BRANCH  21  22
ATOM     22  C   ASN A   7       3.319  10.219   9.504  0.00  0.00    +0.227 C 
ATOM     23  O   ASN A   7       2.823  10.840   8.551  0.00  0.00    -0.286 OA
ENDBRANCH  21  22
BRANCH  21  24
ATOM     24  CB  ASN A   7       5.744   9.443   9.650  0.00  0.00    +0.112 C 
BRANCH  24  25
ATOM     25  CG  ASN A   7       6.162   9.494   8.187  0.00  0.00    +0.222 C 
ATOM     26  ND2 ASN A   7       7.340   8.931   7.902  0.00  0.00    -0.329 N 
ATOM     27 HD21 ASN A   7       7.918   8.520   8.663  0.00  0.00    +0.145 HD
ATOM     28 HD22 ASN A   7       7.679   8.903   6.919  0.00  0.00    +0.145 HD
ATOM     29  OD1 ASN A   7       5.442   9.995   7.310  0.00  0.00    -0.275 OA
ENDBRANCH  24  25
ENDBRANCH  21  24
ENDBRANCH  19  21
ENDBRANCH  16  17
ENDBRANCH  13  16
ENDBRANCH  11  12
BRANCH  11  30
ATOM     30  CB  LEU A   5       2.365   7.674  15.847  0.00  0.00    +0.029 C 
BRANCH  30  31
ATOM     31  CG  LEU A   5       2.183   6.186  16.241  0.00  0.00    +0.002 C 
ATOM     32  CD2 LEU A   5       2.252   5.976  17.741  0.00  0.00    +0.000 C 
ATOM     33  CD1 LEU A   5       0.917   5.643  15.627  0.00  0.00    +0.000 C 
ENDBRANCH  30  31
ENDBRANCH  11  30
ENDBRANCH   8  11
ENDBRANCH   5   7
ENDBRANCH   2   5
BRANCH   1  34
ATOM     34  CA  MET A   3       7.947   9.073  15.148  0.00  0.00    +0.149 C 
BRANCH  34  37
ATOM     35  C   PRO A   2       6.579   8.260  16.982  0.00  0.00    +0.241 C 
ATOM     36  O   PRO A   2       5.576   8.839  16.510  0.00  0.00    -0.273 OA
ATOM     37  N   MET A   3       7.763   8.266  16.372  0.00  0.00    -0.297 N 
ATOM     38  H   MET A   3       8.552   7.707  16.754  0.00  0.00    +0.150 HD
BRANCH  35  44
ATOM     39  C   TYR A   1       6.753   5.300  17.304  0.00  0.00    +0.242 C 
ATOM     40  N   PRO A   2       6.996   6.158  18.292  0.00  0.00    -0.272 N 
ATOM     41  CD  PRO A   2       7.765   5.867  19.499  0.00  0.00    +0.094 C 
ATOM     42  CG  PRO A   2       7.571   7.106  20.334  0.00  0.00    +0.024 C 
ATOM     43  CB  PRO A   2       7.210   8.193  19.386  0.00  0.00    +0.031 C 
ATOM     44  CA  PRO A   2       6.440   7.503  18.293  0.00  0.00    +0.152 C 
ATOM     45  O   TYR A   1       6.025   5.589  16.373  0.00  0.00    -0.273 OA
BRANCH  39  46
ATOM     46  CA  TYR A   1       7.385   3.897  17.438  0.00  0.00    +0.149 C 
BRANCH  46  47
ATOM     47  N   TYR A   1       6.649   3.094  18.447  0.00  0.00    -0.238 NA
ATOM     48  H   TYR A   1       5.611   3.039  18.404  0.00  0.00    +0.142 HD
ENDBRANCH  46  47
BRANCH  46  49
ATOM     49  CB  TYR A   1       7.349   3.156  16.124  0.00  0.00    +0.053 C 
BRANCH  49  50
ATOM     50  CG  TYR A   1       8.428   3.524  15.103  0.00  0.00    -0.020 A 
ATOM     51  CD2 TYR A   1       9.061   4.760  15.109  0.00  0.00    -0.001 A 
ATOM     52  CE2 TYR A   1      10.032   5.082  14.194  0.00  0.00    +0.036 A 
ATOM     53  CZ  TYR A   1      10.442   4.141  13.280  0.00  0.00    +0.134 A 
ATOM     54  CE1 TYR A   1       9.825   2.897  13.245  0.00  0.00    +0.036 A 
ATOM     55  CD1 TYR A   1       8.846   2.592  14.180  0.00  0.00    -0.001 A 
BRANCH  53  56
ATOM     56  OH  TYR A   1      11.386   4.445  12.348  0.00  0.00    -0.506 OA
ATOM     57  HH  TYR A   1      11.725   5.361  12.510  0.00  0.00    +0.292 HD
ENDBRANCH  53  56
ENDBRANCH  49  50
ENDBRANCH  46  49
ENDBRANCH  39  46
ENDBRANCH  35  44
ENDBRANCH  34  37
BRANCH  34  58
ATOM     58  CB  MET A   3       9.415   9.239  14.784  0.00  0.00    +0.041 C 
BRANCH  58  59
ATOM     59  CG  MET A   3      10.183  10.171  15.693  0.00  0.00    +0.060 C 
BRANCH  59  60
ATOM     60  SD  MET A   3      11.956  10.318  15.342  0.00  0.00    -0.139 S 
ATOM     61  CE  MET A   3      12.610   8.758  15.861  0.00  0.00    +0.069 C 
ENDBRANCH  59  60
ENDBRANCH  58  59
ENDBRANCH  34  58
ENDBRANCH   1  34
TORSDOF 23
REMARK  Name = ../refined-set-2016/4x5z/4x5z_pocket.pdb
REMARK  231 active torsions:
REMARK  status: ('A' for Active; 'I' for Inactive)
REMARK    1  A    between atoms: _1  and  _3
REMARK    2  A    between atoms: _3  and  _4
REMARK    3  A    between atoms: _3  and  _6
REMARK    4  A    between atoms: _6  and  _7
REMARK    5  A    between atoms: _10  and  _12
REMARK    6  A    between atoms: _12  and  _13
REMARK    7  A    between atoms: _12  and  _15
REMARK    8  A    between atoms: _15  and  _16
REMARK    9  A    between atoms: _18  and  _20
REMARK   10  A    between atoms: _20  and  _21
REMARK   11  A    between atoms: _20  and  _23
REMARK   12  A    between atoms: _23  and  _24
REMARK   13  A    between atoms: _26  and  _28
REMARK   14  A    between atoms: _28  and  _29
REMARK   15  A    between atoms: _31  and  _33
REMARK   16  A    between atoms: _33  and  _34
REMARK   17  A    between atoms: _37  and  _39
REMARK   18  A    between atoms: _39  and  _40
REMARK   19  A    between atoms: _39  and  _42
REMARK   20  A    between atoms: _42  and  _43
REMARK   21  A    between atoms: _49  and  _51
REMARK   22  A    between atoms: _51  and  _52
REMARK   23  A    between atoms: _51  and  _54
REMARK   24  A    between atoms: _54  and  _55
REMARK   25  A    between atoms: _58  and  _60
REMARK   26  A    between atoms: _60  and  _61
REMARK   27  A    between atoms: _64  and  _66
REMARK   28  A    between atoms: _66  and  _67
REMARK   29  A    between atoms: _66  and  _69
REMARK   30  A    between atoms: _69  and  _70
REMARK   31  A    between atoms: _73  and  _75
REMARK   32  A    between atoms: _75  and  _76
REMARK   33  A    between atoms: _75  and  _78
REMARK   34  A    between atoms: _78  and  _79
REMARK   35  A    between atoms: _81  and  _83
REMARK   36  A    between atoms: _83  and  _84
REMARK   37  A    between atoms: _83  and  _86
REMARK   38  A    between atoms: _86  and  _87
REMARK   39  A    between atoms: _87  and  _88
REMARK   40  A    between atoms: _91  and  _93
REMARK   41  A    between atoms: _93  and  _94
REMARK   42  A    between atoms: _93  and  _96
REMARK   43  A    between atoms: _96  and  _97
REMARK   44  A    between atoms: _100  and  _102
REMARK   45  A    between atoms: _102  and  _103
REMARK   46  A    between atoms: _102  and  _105
REMARK   47  A    between atoms: _105  and  _106
REMARK   48  A    between atoms: _111  and  _113
REMARK   49  A    between atoms: _113  and  _114
REMARK   50  A    between atoms: _117  and  _119
REMARK   51  A    between atoms: _119  and  _120
REMARK   52  A    between atoms: _119  and  _122
REMARK   53  A    between atoms: _122  and  _123
REMARK   54  A    between atoms: _133  and  _135
REMARK   55  A    between atoms: _135  and  _136
REMARK   56  A    between atoms: _135  and  _138
REMARK   57  A    between atoms: _138  and  _139
REMARK   58  A    between atoms: _142  and  _144
REMARK   59  A    between atoms: _144  and  _145
REMARK   60  A    between atoms: _144  and  _147
REMARK   61  A    between atoms: _147  and  _148
REMARK   62  A    between atoms: _158  and  _160
REMARK   63  A    between atoms: _160  and  _161
REMARK   64  A    between atoms: _160  and  _163
REMARK   65  A    between atoms: _163  and  _164
REMARK   66  A    between atoms: _169  and  _171
REMARK   67  A    between atoms: _171  and  _172
REMARK   68  A    between atoms: _174  and  _176
REMARK   69  A    between atoms: _176  and  _177
REMARK   70  A    between atoms: _176  and  _179
REMARK   71  A    between atoms: _179  and  _180
REMARK   72  A    between atoms: _190  and  _192
REMARK   73  A    between atoms: _192  and  _193
REMARK   74  A    between atoms: _192  and  _195
REMARK   75  A    between atoms: _195  and  _196
REMARK   76  A    between atoms: _199  and  _201
REMARK   77  A    between atoms: _201  and  _202
REMARK   78  A    between atoms: _201  and  _204
REMARK   79  A    between atoms: _204  and  _205
REMARK   80  A    between atoms: _205  and  _206
REMARK   81  A    between atoms: _208  and  _210
REMARK   82  A    between atoms: _210  and  _211
REMARK   83  A    between atoms: _210  and  _213
REMARK   84  A    between atoms: _215  and  _217
REMARK   85  A    between atoms: _217  and  _218
REMARK   86  A    between atoms: _221  and  _223
REMARK   87  A    between atoms: _223  and  _224
REMARK   88  A    between atoms: _223  and  _226
REMARK   89  A    between atoms: _226  and  _227
REMARK   90  A    between atoms: _233  and  _235
REMARK   91  A    between atoms: _235  and  _236
REMARK   92  A    between atoms: _235  and  _238
REMARK   93  A    between atoms: _238  and  _239
REMARK   94  A    between atoms: _239  and  _240
REMARK   95  A    between atoms: _242  and  _244
REMARK   96  A    between atoms: _244  and  _245
REMARK   97  A    between atoms: _244  and  _247
REMARK   98  A    between atoms: _250  and  _252
REMARK   99  A    between atoms: _252  and  _253
REMARK  100  A    between atoms: _252  and  _255
REMARK  101  A    between atoms: _257  and  _259
REMARK  102  A    between atoms: _259  and  _260
REMARK  103  A    between atoms: _263  and  _265
REMARK  104  A    between atoms: _265  and  _266
REMARK  105  A    between atoms: _265  and  _268
REMARK  106  A    between atoms: _268  and  _269
REMARK  107  A    between atoms: _269  and  _270
REMARK  108  A    between atoms: _275  and  _277
REMARK  109  A    between atoms: _277  and  _278
REMARK  110  A    between atoms: _277  and  _280
REMARK  111  A    between atoms: _280  and  _281
REMARK  112  A    between atoms: _286  and  _287
REMARK  113  A    between atoms: _290  and  _291
REMARK  114  A    between atoms: _296  and  _298
REMARK  115  A    between atoms: _298  and  _299
REMARK  116  A    between atoms: _298  and  _301
REMARK  117  A    between atoms: _301  and  _302
REMARK  118  A    between atoms: _302  and  _303
REMARK  119  A    between atoms: _305  and  _307
REMARK  120  A    between atoms: _307  and  _308
REMARK  121  A    between atoms: _311  and  _313
REMARK  122  A    between atoms: _313  and  _314
REMARK  123  A    between atoms: _313  and  _316
REMARK  124  A    between atoms: _316  and  _317
REMARK  125  A    between atoms: _320  and  _322
REMARK  126  A    between atoms: _322  and  _323
REMARK  127  A    between atoms: _325  and  _327
REMARK  128  A    between atoms: _327  and  _328
REMARK  129  A    between atoms: _327  and  _330
REMARK  130  A    between atoms: _330  and  _331
REMARK  131  A    between atoms: _336  and  _338
REMARK  132  A    between atoms: _338  and  _339
REMARK  133  A    between atoms: _338  and  _341
REMARK  134  A    between atoms: _341  and  _342
REMARK  135  A    between atoms: _345  and  _347
REMARK  136  A    between atoms: _347  and  _348
REMARK  137  A    between atoms: _347  and  _350
REMARK  138  A    between atoms: _350  and  _351
REMARK  139  A    between atoms: _356  and  _357
REMARK  140  A    between atoms: _359  and  _361
REMARK  141  A    between atoms: _361  and  _362
REMARK  142  A    between atoms: _361  and  _364
REMARK  143  A    between atoms: _364  and  _365
REMARK  144  A    between atoms: _368  and  _370
REMARK  145  A    between atoms: _370  and  _371
REMARK  146  A    between atoms: _370  and  _373
REMARK  147  A    between atoms: _373  and  _374
REMARK  148  A    between atoms: _379  and  _380
REMARK  149  A    between atoms: _383  and  _384
REMARK  150  A    between atoms: _389  and  _391
REMARK  151  A    between atoms: _391  and  _392
REMARK  152  A    between atoms: _391  and  _394
REMARK  153  A    between atoms: _394  and  _395
REMARK  154  A    between atoms: _400  and  _401
REMARK  155  A    between atoms: _403  and  _405
REMARK  156  A    between atoms: _405  and  _406
REMARK  157  A    between atoms: _405  and  _408
REMARK  158  A    between atoms: _408  and  _409
REMARK  159  A    between atoms: _409  and  _410
REMARK  160  A    between atoms: _412  and  _414
REMARK  161  A    between atoms: _414  and  _415
REMARK  162  A    between atoms: _414  and  _417
REMARK  163  A    between atoms: _417  and  _418
REMARK  164  A    between atoms: _423  and  _424
REMARK  165  A    between atoms: _426  and  _428
REMARK  166  A    between atoms: _428  and  _429
REMARK  167  A    between atoms: _428  and  _431
REMARK  168  A    between atoms: _431  and  _432
REMARK  169  A    between atoms: _435  and  _437
REMARK  170  A    between atoms: _437  and  _438
REMARK  171  A    between atoms: _441  and  _443
REMARK  172  A    between atoms: _443  and  _444
REMARK  173  A    between atoms: _446  and  _448
REMARK  174  A    between atoms: _448  and  _449
REMARK  175  A    between atoms: _448  and  _451
REMARK  176  A    between atoms: _451  and  _452
REMARK  177  A    between atoms: _457  and  _458
REMARK  178  A    between atoms: _460  and  _462
REMARK  179  A    between atoms: _462  and  _463
REMARK  180  A    between atoms: _462  and  _465
REMARK  181  A    between atoms: _465  and  _466
REMARK  182  A    between atoms: _471  and  _473
REMARK  183  A    between atoms: _473  and  _474
REMARK  184  A    between atoms: _473  and  _476
REMARK  185  A    between atoms: _478  and  _480
REMARK  186  A    between atoms: _480  and  _481
REMARK  187  A    between atoms: _480  and  _483
REMARK  188  A    between atoms: _483  and  _484
REMARK  189  A    between atoms: _484  and  _485
REMARK  190  A    between atoms: _485  and  _486
REMARK  191  A    between atoms: _495  and  _497
REMARK  192  A    between atoms: _497  and  _498
REMARK  193  A    between atoms: _501  and  _503
REMARK  194  A    between atoms: _503  and  _504
REMARK  195  A    between atoms: _507  and  _509
REMARK  196  A    between atoms: _509  and  _510
REMARK  197  A    between atoms: _509  and  _512
REMARK  198  A    between atoms: _512  and  _513
REMARK  199  A    between atoms: _523  and  _525
REMARK  200  A    between atoms: _525  and  _526
REMARK  201  A    between atoms: _525  and  _528
REMARK  202  A    between atoms: _528  and  _529
REMARK  203  A    between atoms: _532  and  _534
REMARK  204  A    between atoms: _534  and  _535
REMARK  205  A    between atoms: _534  and  _537
REMARK  206  A    between atoms: _537  and  _538
REMARK  207  A    between atoms: _538  and  _539
REMARK  208  A    between atoms: _542  and  _544
REMARK  209  A    between atoms: _544  and  _545
REMARK  210  A    between atoms: _544  and  _547
REMARK  211  A    between atoms: _547  and  _548
REMARK  212  A    between atoms: _551  and  _553
REMARK  213  A    between atoms: _553  and  _554
REMARK  214  A    between atoms: _553  and  _556
REMARK  215  A    between atoms: _556  and  _557
REMARK  216  A    between atoms: _557  and  _558
REMARK  217  A    between atoms: _561  and  _563
REMARK  218  A    between atoms: _563  and  _564
REMARK  219  A    between atoms: _563  and  _566
REMARK  220  A    between atoms: _566  and  _567
REMARK  221  A    between atoms: _573  and  _575
REMARK  222  A    between atoms: _575  and  _576
REMARK  223  A    between atoms: _575  and  _578
REMARK  224  A    between atoms: _578  and  _579
REMARK  225  A    between atoms: _579  and  _580
REMARK  226  A    between atoms: _583  and  _585
REMARK  227  A    between atoms: _585  and  _586
REMARK  228  A    between atoms: _585  and  _588
REMARK  229  A    between atoms: _591  and  _593
REMARK  230  A    between atoms: _593  and  _594
REMARK  231  A    between atoms: _593  and  _596
REMARK                            x       y       z     vdW  Elec       q    Type
REMARK                         _______ _______ _______ _____ _____    ______ ____
ROOT
ATOM      1  CA  ASP A   1       1.386  14.241   8.728  0.00  0.00    +0.144 C 
ENDROOT
BRANCH   1   2
ATOM      2  N   ASP A   1       1.054  13.280   9.801  0.00  0.00    -0.239 NA
ATOM      3  H   ASP A   1       1.829  12.830  10.328  0.00  0.00    +0.142 HD
ENDBRANCH   1   2
BRANCH   1   4
ATOM      4  C   ASP A   1       0.751  13.851   7.359  0.00  0.00    +0.225 C 
ATOM      5  O   ASP A   1       0.288  14.716   6.610  0.00  0.00    -0.287 OA
ENDBRANCH   1   4
BRANCH   1   6
ATOM      6  CB  ASP A   1       2.882  14.329   8.515  0.00  0.00    +0.139 C 
BRANCH   6   7
ATOM      7  CG  ASP A   1       3.587  15.182   9.512  0.00  0.00    +0.367 C 
ATOM      8  OD2 ASP A   1       2.966  15.679  10.473  0.00  0.00    -0.246 OA
ATOM      9  OD1 ASP A   1       4.838  15.313   9.338  0.00  0.00    -0.246 OA
ENDBRANCH   6   7
ENDBRANCH   1   6
TORSDOF 4
REMARK  Name = ../refined-set-2016/4x5z/4x5z_pocket.pdb
REMARK  231 active torsions:
REMARK  status: ('A' for Active; 'I' for Inactive)
REMARK    1  A    between atoms: _1  and  _3
REMARK    2  A    between atoms: _3  and  _4
REMARK    3  A    between atoms: _3  and  _6
REMARK    4  A    between atoms: _6  and  _7
REMARK    5  A    between atoms: _10  and  _12
REMARK    6  A    between atoms: _12  and  _13
REMARK    7  A    between atoms: _12  and  _15
REMARK    8  A    between atoms: _15  and  _16
REMARK    9  A    between atoms: _18  and  _20
REMARK   10  A    between atoms: _20  and  _21
REMARK   11  A    between atoms: _20  and  _23
REMARK   12  A    between atoms: _23  and  _24
REMARK   13  A    between atoms: _26  and  _28
REMARK   14  A    between atoms: _28  and  _29
REMARK   15  A    between atoms: _31  and  _33
REMARK   16  A    between atoms: _33  and  _34
REMARK   17  A    between atoms: _37  and  _39
REMARK   18  A    between atoms: _39  and  _40
REMARK   19  A    between atoms: _39  and  _42
REMARK   20  A    between atoms: _42  and  _43
REMARK   21  A    between atoms: _49  and  _51
REMARK   22  A    between atoms: _51  and  _52
REMARK   23  A    between atoms: _51  and  _54
REMARK   24  A    between atoms: _54  and  _55
REMARK   25  A    between atoms: _58  and  _60
REMARK   26  A    between atoms: _60  and  _61
REMARK   27  A    between atoms: _64  and  _66
REMARK   28  A    between atoms: _66  and  _67
REMARK   29  A    between atoms: _66  and  _69
REMARK   30  A    between atoms: _69  and  _70
REMARK   31  A    between atoms: _73  and  _75
REMARK   32  A    between atoms: _75  and  _76
REMARK   33  A    between atoms: _75  and  _78
REMARK   34  A    between atoms: _78  and  _79
REMARK   35  A    between atoms: _81  and  _83
REMARK   36  A    between atoms: _83  and  _84
REMARK   37  A    between atoms: _83  and  _86
REMARK   38  A    between atoms: _86  and  _87
REMARK   39  A    between atoms: _87  and  _88
REMARK   40  A    between atoms: _91  and  _93
REMARK   41  A    between atoms: _93  and  _94
REMARK   42  A    between atoms: _93  and  _96
REMARK   43  A    between atoms: _96  and  _97
REMARK   44  A    between atoms: _100  and  _102
REMARK   45  A    between atoms: _102  and  _103
REMARK   46  A    between atoms: _102  and  _105
REMARK   47  A    between atoms: _105  and  _106
REMARK   48  A    between atoms: _111  and  _113
REMARK   49  A    between atoms: _113  and  _114
REMARK   50  A    between atoms: _117  and  _119
REMARK   51  A    between atoms: _119  and  _120
REMARK   52  A    between atoms: _119  and  _122
REMARK   53  A    between atoms: _122  and  _123
REMARK   54  A    between atoms: _133  and  _135
REMARK   55  A    between atoms: _135  and  _136
REMARK   56  A    between atoms: _135  and  _138
REMARK   57  A    between atoms: _138  and  _139
REMARK   58  A    between atoms: _142  and  _144
REMARK   59  A    between atoms: _144  and  _145
REMARK   60  A    between atoms: _144  and  _147
REMARK   61  A    between atoms: _147  and  _148
REMARK   62  A    between atoms: _158  and  _160
REMARK   63  A    between atoms: _160  and  _161
REMARK   64  A    between atoms: _160  and  _163
REMARK   65  A    between atoms: _163  and  _164
REMARK   66  A    between atoms: _169  and  _171
REMARK   67  A    between atoms: _171  and  _172
REMARK   68  A    between atoms: _174  and  _176
REMARK   69  A    between atoms: _176  and  _177
REMARK   70  A    between atoms: _176  and  _179
REMARK   71  A    between atoms: _179  and  _180
REMARK   72  A    between atoms: _190  and  _192
REMARK   73  A    between atoms: _192  and  _193
REMARK   74  A    between atoms: _192  and  _195
REMARK   75  A    between atoms: _195  and  _196
REMARK   76  A    between atoms: _199  and  _201
REMARK   77  A    between atoms: _201  and  _202
REMARK   78  A    between atoms: _201  and  _204
REMARK   79  A    between atoms: _204  and  _205
REMARK   80  A    between atoms: _205  and  _206
REMARK   81  A    between atoms: _208  and  _210
REMARK   82  A    between atoms: _210  and  _211
REMARK   83  A    between atoms: _210  and  _213
REMARK   84  A    between atoms: _215  and  _217
REMARK   85  A    between atoms: _217  and  _218
REMARK   86  A    between atoms: _221  and  _223
REMARK   87  A    between atoms: _223  and  _224
REMARK   88  A    between atoms: _223  and  _226
REMARK   89  A    between atoms: _226  and  _227
REMARK   90  A    between atoms: _233  and  _235
REMARK   91  A    between atoms: _235  and  _236
REMARK   92  A    between atoms: _235  and  _238
REMARK   93  A    between atoms: _238  and  _239
REMARK   94  A    between atoms: _239  and  _240
REMARK   95  A    between atoms: _242  and  _244
REMARK   96  A    between atoms: _244  and  _245
REMARK   97  A    between atoms: _244  and  _247
REMARK   98  A    between atoms: _250  and  _252
REMARK   99  A    between atoms: _252  and  _253
REMARK  100  A    between atoms: _252  and  _255
REMARK  101  A    between atoms: _257  and  _259
REMARK  102  A    between atoms: _259  and  _260
REMARK  103  A    between atoms: _263  and  _265
REMARK  104  A    between atoms: _265  and  _266
REMARK  105  A    between atoms: _265  and  _268
REMARK  106  A    between atoms: _268  and  _269
REMARK  107  A    between atoms: _269  and  _270
REMARK  108  A    between atoms: _275  and  _277
REMARK  109  A    between atoms: _277  and  _278
REMARK  110  A    between atoms: _277  and  _280
REMARK  111  A    between atoms: _280  and  _281
REMARK  112  A    between atoms: _286  and  _287
REMARK  113  A    between atoms: _290  and  _291
REMARK  114  A    between atoms: _296  and  _298
REMARK  115  A    between atoms: _298  and  _299
REMARK  116  A    between atoms: _298  and  _301
REMARK  117  A    between atoms: _301  and  _302
REMARK  118  A    between atoms: _302  and  _303
REMARK  119  A    between atoms: _305  and  _307
REMARK  120  A    between atoms: _307  and  _308
REMARK  121  A    between atoms: _311  and  _313
REMARK  122  A    between atoms: _313  and  _314
REMARK  123  A    between atoms: _313  and  _316
REMARK  124  A    between atoms: _316  and  _317
REMARK  125  A    between atoms: _320  and  _322
REMARK  126  A    between atoms: _322  and  _323
REMARK  127  A    between atoms: _325  and  _327
REMARK  128  A    between atoms: _327  and  _328
REMARK  129  A    between atoms: _327  and  _330
REMARK  130  A    between atoms: _330  and  _331
REMARK  131  A    between atoms: _336  and  _338
REMARK  132  A    between atoms: _338  and  _339
REMARK  133  A    between atoms: _338  and  _341
REMARK  134  A    between atoms: _341  and  _342
REMARK  135  A    between atoms: _345  and  _347
REMARK  136  A    between atoms: _347  and  _348
REMARK  137  A    between atoms: _347  and  _350
REMARK  138  A    between atoms: _350  and  _351
REMARK  139  A    between atoms: _356  and  _357
REMARK  140  A    between atoms: _359  and  _361
REMARK  141  A    between atoms: _361  and  _362
REMARK  142  A    between atoms: _361  and  _364
REMARK  143  A    between atoms: _364  and  _365
REMARK  144  A    between atoms: _368  and  _370
REMARK  145  A    between atoms: _370  and  _371
REMARK  146  A    between atoms: _370  and  _373
REMARK  147  A    between atoms: _373  and  _374
REMARK  148  A    between atoms: _379  and  _380
REMARK  149  A    between atoms: _383  and  _384
REMARK  150  A    between atoms: _389  and  _391
REMARK  151  A    between atoms: _391  and  _392
REMARK  152  A    between atoms: _391  and  _394
REMARK  153  A    between atoms: _394  and  _395
REMARK  154  A    between atoms: _400  and  _401
REMARK  155  A    between atoms: _403  and  _405
REMARK  156  A    between atoms: _405  and  _406
REMARK  157  A    between atoms: _405  and  _408
REMARK  158  A    between atoms: _408  and  _409
REMARK  159  A    between atoms: _409  and  _410
REMARK  160  A    between atoms: _412  and  _414
REMARK  161  A    between atoms: _414  and  _415
REMARK  162  A    between atoms: _414  and  _417
REMARK  163  A    between atoms: _417  and  _418
REMARK  164  A    between atoms: _423  and  _424
REMARK  165  A    between atoms: _426  and  _428
REMARK  166  A    between atoms: _428  and  _429
REMARK  167  A    between atoms: _428  and  _431
REMARK  168  A    between atoms: _431  and  _432
REMARK  169  A    between atoms: _435  and  _437
REMARK  170  A    between atoms: _437  and  _438
REMARK  171  A    between atoms: _441  and  _443
REMARK  172  A    between atoms: _443  and  _444
REMARK  173  A    between atoms: _446  and  _448
REMARK  174  A    between atoms: _448  and  _449
REMARK  175  A    between atoms: _448  and  _451
REMARK  176  A    between atoms: _451  and  _452
REMARK  177  A    between atoms: _457  and  _458
REMARK  178  A    between atoms: _460  and  _462
REMARK  179  A    between atoms: _462  and  _463
REMARK  180  A    between atoms: _462  and  _465
REMARK  181  A    between atoms: _465  and  _466
REMARK  182  A    between atoms: _471  and  _473
REMARK  183  A    between atoms: _473  and  _474
REMARK  184  A    between atoms: _473  and  _476
REMARK  185  A    between atoms: _478  and  _480
REMARK  186  A    between atoms: _480  and  _481
REMARK  187  A    between atoms: _480  and  _483
REMARK  188  A    between atoms: _483  and  _484
REMARK  189  A    between atoms: _484  and  _485
REMARK  190  A    between atoms: _485  and  _486
REMARK  191  A    between atoms: _495  and  _497
REMARK  192  A    between atoms: _497  and  _498
REMARK  193  A    between atoms: _501  and  _503
REMARK  194  A    between atoms: _503  and  _504
REMARK  195  A    between atoms: _507  and  _509
REMARK  196  A    between atoms: _509  and  _510
REMARK  197  A    between atoms: _509  and  _512
REMARK  198  A    between atoms: _512  and  _513
REMARK  199  A    between atoms: _523  and  _525
REMARK  200  A    between atoms: _525  and  _526
REMARK  201  A    between atoms: _525  and  _528
REMARK  202  A    between atoms: _528  and  _529
REMARK  203  A    between atoms: _532  and  _534
REMARK  204  A    between atoms: _534  and  _535
REMARK  205  A    between atoms: _534  and  _537
REMARK  206  A    between atoms: _537  and  _538
REMARK  207  A    between atoms: _538  and  _539
REMARK  208  A    between atoms: _542  and  _544
REMARK  209  A    between atoms: _544  and  _545
REMARK  210  A    between atoms: _544  and  _547
REMARK  211  A    between atoms: _547  and  _548
REMARK  212  A    between atoms: _551  and  _553
REMARK  213  A    between atoms: _553  and  _554
REMARK  214  A    between atoms: _553  and  _556
REMARK  215  A    between atoms: _556  and  _557
REMARK  216  A    between atoms: _557  and  _558
REMARK  217  A    between atoms: _561  and  _563
REMARK  218  A    between atoms: _563  and  _564
REMARK  219  A    between atoms: _563  and  _566
REMARK  220  A    between atoms: _566  and  _567
REMARK  221  A    between atoms: _573  and  _575
REMARK  222  A    between atoms: _575  and  _576
REMARK  223  A    between atoms: _575  and  _578
REMARK  224  A    between atoms: _578  and  _579
REMARK  225  A    between atoms: _579  and  _580
REMARK  226  A    between atoms: _583  and  _585
REMARK  227  A    between atoms: _585  and  _586
REMARK  228  A    between atoms: _585  and  _588
REMARK  229  A    between atoms: _591  and  _593
REMARK  230  A    between atoms: _593  and  _594
REMARK  231  A    between atoms: _593  and  _596
REMARK                            x       y       z     vdW  Elec       q    Type
REMARK                         _______ _______ _______ _____ _____    ______ ____
ROOT
ATOM      1  CG  TYR A   1       0.170  15.001  15.631  0.00  0.00    -0.020 A 
ATOM      2  CD2 TYR A   1       1.360  14.717  14.994  0.00  0.00    -0.001 A 
ATOM      3  CE2 TYR A   1       1.571  15.127  13.690  0.00  0.00    +0.036 A 
ATOM      4  CZ  TYR A   1       0.569  15.853  13.027  0.00  0.00    +0.134 A 
ATOM      5  CE1 TYR A   1      -0.619  16.151  13.681  0.00  0.00    +0.036 A 
ATOM      6  CD1 TYR A   1      -0.797  15.745  14.944  0.00  0.00    -0.001 A 
ENDROOT
BRANCH   4   7
ATOM      7  OH  TYR A   1       0.749  16.262  11.753  0.00  0.00    -0.506 OA
ATOM      8  HH  TYR A   1       1.641  15.971  11.437  0.00  0.00    +0.292 HD
ENDBRANCH   4   7
BRANCH   1   9
ATOM      9  CB  TYR A   1      -0.074  14.566  17.026  0.00  0.00    +0.051 C 
BRANCH   9  10
ATOM     10  CA  TYR A   1       0.016  13.083  17.223  0.00  0.00    +0.137 C 
BRANCH  10  11
ATOM     11  N   TYR A   1      -1.105  12.384  16.557  0.00  0.00    -0.239 NA
ATOM     12  H   TYR A   1      -1.820  12.922  16.027  0.00  0.00    +0.142 HD
ENDBRANCH  10  11
BRANCH  10  13
ATOM     13  C   TYR A   1       0.007  12.753  18.685  0.00  0.00    +0.224 C 
ATOM     14  O   TYR A   1       1.057  12.476  19.290  0.00  0.00    -0.287 OA
ENDBRANCH  10  13
ENDBRANCH   9  10
ENDBRANCH   1   9
TORSDOF 5
REMARK  Name = ../refined-set-2016/4x5z/4x5z_pocket.pdb
REMARK  231 active torsions:
REMARK  status: ('A' for Active; 'I' for Inactive)
REMARK    1  A    between atoms: _1  and  _3
REMARK    2  A    between atoms: _3  and  _4
REMARK    3  A    between atoms: _3  and  _6
REMARK    4  A    between atoms: _6  and  _7
REMARK    5  A    between atoms: _10  and  _12
REMARK    6  A    between atoms: _12  and  _13
REMARK    7  A    between atoms: _12  and  _15
REMARK    8  A    between atoms: _15  and  _16
REMARK    9  A    between atoms: _18  and  _20
REMARK   10  A    between atoms: _20  and  _21
REMARK   11  A    between atoms: _20  and  _23
REMARK   12  A    between atoms: _23  and  _24
REMARK   13  A    between atoms: _26  and  _28
REMARK   14  A    between atoms: _28  and  _29
REMARK   15  A    between atoms: _31  and  _33
REMARK   16  A    between atoms: _33  and  _34
REMARK   17  A    between atoms: _37  and  _39
REMARK   18  A    between atoms: _39  and  _40
REMARK   19  A    between atoms: _39  and  _42
REMARK   20  A    between atoms: _42  and  _43
REMARK   21  A    between atoms: _49  and  _51
REMARK   22  A    between atoms: _51  and  _52
REMARK   23  A    between atoms: _51  and  _54
REMARK   24  A    between atoms: _54  and  _55
REMARK   25  A    between atoms: _58  and  _60
REMARK   26  A    between atoms: _60  and  _61
REMARK   27  A    between atoms: _64  and  _66
REMARK   28  A    between atoms: _66  and  _67
REMARK   29  A    between atoms: _66  and  _69
REMARK   30  A    between atoms: _69  and  _70
REMARK   31  A    between atoms: _73  and  _75
REMARK   32  A    between atoms: _75  and  _76
REMARK   33  A    between atoms: _75  and  _78
REMARK   34  A    between atoms: _78  and  _79
REMARK   35  A    between atoms: _81  and  _83
REMARK   36  A    between atoms: _83  and  _84
REMARK   37  A    between atoms: _83  and  _86
REMARK   38  A    between atoms: _86  and  _87
REMARK   39  A    between atoms: _87  and  _88
REMARK   40  A    between atoms: _91  and  _93
REMARK   41  A    between atoms: _93  and  _94
REMARK   42  A    between atoms: _93  and  _96
REMARK   43  A    between atoms: _96  and  _97
REMARK   44  A    between atoms: _100  and  _102
REMARK   45  A    between atoms: _102  and  _103
REMARK   46  A    between atoms: _102  and  _105
REMARK   47  A    between atoms: _105  and  _106
REMARK   48  A    between atoms: _111  and  _113
REMARK   49  A    between atoms: _113  and  _114
REMARK   50  A    between atoms: _117  and  _119
REMARK   51  A    between atoms: _119  and  _120
REMARK   52  A    between atoms: _119  and  _122
REMARK   53  A    between atoms: _122  and  _123
REMARK   54  A    between atoms: _133  and  _135
REMARK   55  A    between atoms: _135  and  _136
REMARK   56  A    between atoms: _135  and  _138
REMARK   57  A    between atoms: _138  and  _139
REMARK   58  A    between atoms: _142  and  _144
REMARK   59  A    between atoms: _144  and  _145
REMARK   60  A    between atoms: _144  and  _147
REMARK   61  A    between atoms: _147  and  _148
REMARK   62  A    between atoms: _158  and  _160
REMARK   63  A    between atoms: _160  and  _161
REMARK   64  A    between atoms: _160  and  _163
REMARK   65  A    between atoms: _163  and  _164
REMARK   66  A    between atoms: _169  and  _171
REMARK   67  A    between atoms: _171  and  _172
REMARK   68  A    between atoms: _174  and  _176
REMARK   69  A    between atoms: _176  and  _177
REMARK   70  A    between atoms: _176  and  _179
REMARK   71  A    between atoms: _179  and  _180
REMARK   72  A    between atoms: _190  and  _192
REMARK   73  A    between atoms: _192  and  _193
REMARK   74  A    between atoms: _192  and  _195
REMARK   75  A    between atoms: _195  and  _196
REMARK   76  A    between atoms: _199  and  _201
REMARK   77  A    between atoms: _201  and  _202
REMARK   78  A    between atoms: _201  and  _204
REMARK   79  A    between atoms: _204  and  _205
REMARK   80  A    between atoms: _205  and  _206
REMARK   81  A    between atoms: _208  and  _210
REMARK   82  A    between atoms: _210  and  _211
REMARK   83  A    between atoms: _210  and  _213
REMARK   84  A    between atoms: _215  and  _217
REMARK   85  A    between atoms: _217  and  _218
REMARK   86  A    between atoms: _221  and  _223
REMARK   87  A    between atoms: _223  and  _224
REMARK   88  A    between atoms: _223  and  _226
REMARK   89  A    between atoms: _226  and  _227
REMARK   90  A    between atoms: _233  and  _235
REMARK   91  A    between atoms: _235  and  _236
REMARK   92  A    between atoms: _235  and  _238
REMARK   93  A    between atoms: _238  and  _239
REMARK   94  A    between atoms: _239  and  _240
REMARK   95  A    between atoms: _242  and  _244
REMARK   96  A    between atoms: _244  and  _245
REMARK   97  A    between atoms: _244  and  _247
REMARK   98  A    between atoms: _250  and  _252
REMARK   99  A    between atoms: _252  and  _253
REMARK  100  A    between atoms: _252  and  _255
REMARK  101  A    between atoms: _257  and  _259
REMARK  102  A    between atoms: _259  and  _260
REMARK  103  A    between atoms: _263  and  _265
REMARK  104  A    between atoms: _265  and  _266
REMARK  105  A    between atoms: _265  and  _268
REMARK  106  A    between atoms: _268  and  _269
REMARK  107  A    between atoms: _269  and  _270
REMARK  108  A    between atoms: _275  and  _277
REMARK  109  A    between atoms: _277  and  _278
REMARK  110  A    between atoms: _277  and  _280
REMARK  111  A    between atoms: _280  and  _281
REMARK  112  A    between atoms: _286  and  _287
REMARK  113  A    between atoms: _290  and  _291
REMARK  114  A    between atoms: _296  and  _298
REMARK  115  A    between atoms: _298  and  _299
REMARK  116  A    between atoms: _298  and  _301
REMARK  117  A    between atoms: _301  and  _302
REMARK  118  A    between atoms: _302  and  _303
REMARK  119  A    between atoms: _305  and  _307
REMARK  120  A    between atoms: _307  and  _308
REMARK  121  A    between atoms: _311  and  _313
REMARK  122  A    between atoms: _313  and  _314
REMARK  123  A    between atoms: _313  and  _316
REMARK  124  A    between atoms: _316  and  _317
REMARK  125  A    between atoms: _320  and  _322
REMARK  126  A    between atoms: _322  and  _323
REMARK  127  A    between atoms: _325  and  _327
REMARK  128  A    between atoms: _327  and  _328
REMARK  129  A    between atoms: _327  and  _330
REMARK  130  A    between atoms: _330  and  _331
REMARK  131  A    between atoms: _336  and  _338
REMARK  132  A    between atoms: _338  and  _339
REMARK  133  A    between atoms: _338  and  _341
REMARK  134  A    between atoms: _341  and  _342
REMARK  135  A    between atoms: _345  and  _347
REMARK  136  A    between atoms: _347  and  _348
REMARK  137  A    between atoms: _347  and  _350
REMARK  138  A    between atoms: _350  and  _351
REMARK  139  A    between atoms: _356  and  _357
REMARK  140  A    between atoms: _359  and  _361
REMARK  141  A    between atoms: _361  and  _362
REMARK  142  A    between atoms: _361  and  _364
REMARK  143  A    between atoms: _364  and  _365
REMARK  144  A    between atoms: _368  and  _370
REMARK  145  A    between atoms: _370  and  _371
REMARK  146  A    between atoms: _370  and  _373
REMARK  147  A    between atoms: _373  and  _374
REMARK  148  A    between atoms: _379  and  _380
REMARK  149  A    between atoms: _383  and  _384
REMARK  150  A    between atoms: _389  and  _391
REMARK  151  A    between atoms: _391  and  _392
REMARK  152  A    between atoms: _391  and  _394
REMARK  153  A    between atoms: _394  and  _395
REMARK  154  A    between atoms: _400  and  _401
REMARK  155  A    between atoms: _403  and  _405
REMARK  156  A    between atoms: _405  and  _406
REMARK  157  A    between atoms: _405  and  _408
REMARK  158  A    between atoms: _408  and  _409
REMARK  159  A    between atoms: _409  and  _410
REMARK  160  A    between atoms: _412  and  _414
REMARK  161  A    between atoms: _414  and  _415
REMARK  162  A    between atoms: _414  and  _417
REMARK  163  A    between atoms: _417  and  _418
REMARK  164  A    between atoms: _423  and  _424
REMARK  165  A    between atoms: _426  and  _428
REMARK  166  A    between atoms: _428  and  _429
REMARK  167  A    between atoms: _428  and  _431
REMARK  168  A    between atoms: _431  and  _432
REMARK  169  A    between atoms: _435  and  _437
REMARK  170  A    between atoms: _437  and  _438
REMARK  171  A    between atoms: _441  and  _443
REMARK  172  A    between atoms: _443  and  _444
REMARK  173  A    between atoms: _446  and  _448
REMARK  174  A    between atoms: _448  and  _449
REMARK  175  A    between atoms: _448  and  _451
REMARK  176  A    between atoms: _451  and  _452
REMARK  177  A    between atoms: _457  and  _458
REMARK  178  A    between atoms: _460  and  _462
REMARK  179  A    between atoms: _462  and  _463
REMARK  180  A    between atoms: _462  and  _465
REMARK  181  A    between atoms: _465  and  _466
REMARK  182  A    between atoms: _471  and  _473
REMARK  183  A    between atoms: _473  and  _474
REMARK  184  A    between atoms: _473  and  _476
REMARK  185  A    between atoms: _478  and  _480
REMARK  186  A    between atoms: _480  and  _481
REMARK  187  A    between atoms: _480  and  _483
REMARK  188  A    between atoms: _483  and  _484
REMARK  189  A    between atoms: _484  and  _485
REMARK  190  A    between atoms: _485  and  _486
REMARK  191  A    between atoms: _495  and  _497
REMARK  192  A    between atoms: _497  and  _498
REMARK  193  A    between atoms: _501  and  _503
REMARK  194  A    between atoms: _503  and  _504
REMARK  195  A    between atoms: _507  and  _509
REMARK  196  A    between atoms: _509  and  _510
REMARK  197  A    between atoms: _509  and  _512
REMARK  198  A    between atoms: _512  and  _513
REMARK  199  A    between atoms: _523  and  _525
REMARK  200  A    between atoms: _525  and  _526
REMARK  201  A    between atoms: _525  and  _528
REMARK  202  A    between atoms: _528  and  _529
REMARK  203  A    between atoms: _532  and  _534
REMARK  204  A    between atoms: _534  and  _535
REMARK  205  A    between atoms: _534  and  _537
REMARK  206  A    between atoms: _537  and  _538
REMARK  207  A    between atoms: _538  and  _539
REMARK  208  A    between atoms: _542  and  _544
REMARK  209  A    between atoms: _544  and  _545
REMARK  210  A    between atoms: _544  and  _547
REMARK  211  A    between atoms: _547  and  _548
REMARK  212  A    between atoms: _551  and  _553
REMARK  213  A    between atoms: _553  and  _554
REMARK  214  A    between atoms: _553  and  _556
REMARK  215  A    between atoms: _556  and  _557
REMARK  216  A    between atoms: _557  and  _558
REMARK  217  A    between atoms: _561  and  _563
REMARK  218  A    between atoms: _563  and  _564
REMARK  219  A    between atoms: _563  and  _566
REMARK  220  A    between atoms: _566  and  _567
REMARK  221  A    between atoms: _573  and  _575
REMARK  222  A    between atoms: _575  and  _576
REMARK  223  A    between atoms: _575  and  _578
REMARK  224  A    between atoms: _578  and  _579
REMARK  225  A    between atoms: _579  and  _580
REMARK  226  A    between atoms: _583  and  _585
REMARK  227  A    between atoms: _585  and  _586
REMARK  228  A    between atoms: _585  and  _588
REMARK  229  A    between atoms: _591  and  _593
REMARK  230  A    between atoms: _593  and  _594
REMARK  231  A    between atoms: _593  and  _596
REMARK                            x       y       z     vdW  Elec       q    Type
REMARK                         _______ _______ _______ _____ _____    ______ ____
ROOT
ATOM      1  C   TYR A   6       4.014  17.674  15.603  0.00  0.00    +0.241 C 
ATOM      2  N   LEU A   7       3.599  17.567  16.864  0.00  0.00    -0.297 N 
ATOM      3  H   LEU A   7       4.161  17.022  17.549  0.00  0.00    +0.150 HD
ATOM      4  O   TYR A   6       3.357  18.284  14.708  0.00  0.00    -0.273 OA
ENDROOT
BRANCH   2   5
ATOM      5  CA  LEU A   7       2.355  18.213  17.292  0.00  0.00    +0.149 C 
BRANCH   5   6
ATOM      6  C   LEU A   7       2.376  19.725  17.108  0.00  0.00    +0.241 C 
ATOM      7  N   ALA A   8       3.470  20.350  17.557  0.00  0.00    -0.297 N 
ATOM      8  H   ALA A   8       4.222  19.797  18.016  0.00  0.00    +0.150 HD
ATOM      9  O   LEU A   7       1.442  20.314  16.552  0.00  0.00    -0.273 OA
BRANCH   7  10
ATOM     10  CA  ALA A   8       3.625  21.766  17.418  0.00  0.00    +0.149 C 
ATOM     11  CB  ALA A   8       4.926  22.217  18.081  0.00  0.00    +0.031 C 
BRANCH  10  12
ATOM     12  C   ALA A   8       3.585  22.198  15.961  0.00  0.00    +0.241 C 
ATOM     13  O   ALA A   8       2.956  23.221  15.616  0.00  0.00    -0.273 OA
ATOM     14  N   GLY A   9       4.231  21.439  15.082  0.00  0.00    -0.295 N 
ATOM     15  H   GLY A   9       4.767  20.607  15.402  0.00  0.00    +0.150 HD
BRANCH  14  16
ATOM     16  CA  GLY A   9       4.182  21.782  13.661  0.00  0.00    +0.176 C 
BRANCH  16  17
ATOM     17  C   GLY A   9       2.784  21.804  13.068  0.00  0.00    +0.243 C 
ATOM     18  N   TYR A  10       1.997  20.812  13.392  0.00  0.00    -0.297 N 
ATOM     19  H   TYR A  10       2.376  20.038  13.974  0.00  0.00    +0.150 HD
ATOM     20  O   GLY A   9       2.437  22.663  12.294  0.00  0.00    -0.273 OA
BRANCH  18  21
ATOM     21  CA  TYR A  10       0.643  20.759  12.975  0.00  0.00    +0.153 C 
BRANCH  21  22
ATOM     22  C   TYR A  10      -0.110  22.018  13.434  0.00  0.00    +0.241 C 
ATOM     23  N   HIS A  11       0.012  22.387  14.714  0.00  0.00    -0.297 N 
ATOM     24  H   HIS A  11       0.618  21.830  15.349  0.00  0.00    +0.150 HD
ATOM     25  O   TYR A  10      -0.809  22.628  12.638  0.00  0.00    -0.273 OA
BRANCH  23  26
ATOM     26  CA  HIS A  11      -0.690  23.559  15.239  0.00  0.00    +0.155 C 
BRANCH  26  27
ATOM     27  C   HIS A  11      -0.201  24.827  14.588  0.00  0.00    +0.241 C 
ATOM     28  N   CYS A  12       1.107  24.897  14.357  0.00  0.00    -0.296 N 
ATOM     29  H   CYS A  12       1.719  24.131  14.703  0.00  0.00    +0.150 HD
ATOM     30  O   HIS A  11      -1.002  25.731  14.283  0.00  0.00    -0.273 OA
BRANCH  28  31
ATOM     31  CA  CYS A  12       1.702  25.991  13.648  0.00  0.00    +0.160 C 
BRANCH  31  32
ATOM     32  C   CYS A  12       1.121  26.135  12.238  0.00  0.00    +0.242 C 
ATOM     33  O   CYS A  12       0.685  27.222  11.835  0.00  0.00    -0.273 OA
ATOM     34  N   ARG A  13       1.088  25.045  11.473  0.00  0.00    -0.298 N 
ATOM     35  H   ARG A  13       1.466  24.146  11.833  0.00  0.00    +0.150 HD
BRANCH  34  36
ATOM     36  CA  ARG A  13       0.507  25.114  10.095  0.00  0.00    +0.137 C 
BRANCH  36  37
ATOM     37  C   ARG A  13      -0.960  25.531  10.095  0.00  0.00    +0.227 C 
ATOM     38  O   ARG A  13      -1.428  26.111   9.127  0.00  0.00    -0.286 OA
ENDBRANCH  36  37
BRANCH  36  39
ATOM     39  CB  ARG A  13       0.618  23.766   9.382  0.00  0.00    +0.031 C 
BRANCH  39  40
ATOM     40  CG  ARG A  13       2.050  23.398   9.036  0.00  0.00    +0.045 C 
BRANCH  40  41
ATOM     41  CD  ARG A  13       2.079  22.168   8.116  0.00  0.00    +0.174 C 
BRANCH  41  42
ATOM     42  NE  ARG A  13       1.695  20.983   8.855  0.00  0.00    -0.265 N 
ATOM     43  CZ  ARG A  13       2.544  20.309   9.645  0.00  0.00    +0.342 C 
ATOM     44  NH2 ARG A  13       2.138  19.223  10.278  0.00  0.00    -0.292 N 
ATOM     45 HH21 ARG A  13       2.797  18.701  10.890  0.00  0.00    +0.255 HD
ATOM     46 HH22 ARG A  13       1.159  18.890  10.164  0.00  0.00    +0.255 HD
ATOM     47  NH1 ARG A  13       3.821  20.695   9.757  0.00  0.00    -0.292 N 
ATOM     48 HH11 ARG A  13       4.472  20.166  10.372  0.00  0.00    +0.255 HD
ATOM     49 HH12 ARG A  13       4.162  21.524   9.229  0.00  0.00    +0.255 HD
ATOM     50  HE  ARG A  13       0.717  20.639   8.769  0.00  0.00    +0.259 HD
ENDBRANCH  41  42
ENDBRANCH  40  41
ENDBRANCH  39  40
ENDBRANCH  36  39
ENDBRANCH  34  36
ENDBRANCH  31  32
BRANCH  31  51
ATOM     51  CB  CYS A  12       3.203  25.768  13.535  0.00  0.00    +0.098 C 
ATOM     52  SG  CYS A  12       4.084  27.183  12.856  0.00  0.00    -0.080 S 
ENDBRANCH  31  51
ENDBRANCH  28  31
ENDBRANCH  26  27
BRANCH  26  53
ATOM     53  CB  HIS A  11      -0.582  23.639  16.767  0.00  0.00    +0.076 C 
BRANCH  53  54
ATOM     54  CG  HIS A  11      -1.451  22.646  17.490  0.00  0.00    +0.082 A 
ATOM     55  CD2 HIS A  11      -1.165  21.756  18.467  0.00  0.00    +0.115 A 
ATOM     56  NE2 HIS A  11      -2.329  21.091  18.770  0.00  0.00    -0.221 NA
ATOM     57  CE1 HIS A  11      -3.302  21.565  18.011  0.00  0.00    +0.199 A 
ATOM     58  ND1 HIS A  11      -2.792  22.476  17.212  0.00  0.00    -0.227 NA
ENDBRANCH  53  54
ENDBRANCH  26  53
ENDBRANCH  23  26
ENDBRANCH  21  22
BRANCH  21  59
ATOM     59  CB  TYR A  10       0.013  19.524  13.551  0.00  0.00    +0.055 C 
BRANCH  59  60
ATOM     60  CG  TYR A  10      -1.441  19.418  13.295  0.00  0.00    -0.020 A 
ATOM     61  CD2 TYR A  10      -2.352  19.738  14.285  0.00  0.00    -0.001 A 
ATOM     62  CE2 TYR A  10      -3.715  19.659  14.052  0.00  0.00    +0.036 A 
ATOM     63  CZ  TYR A  10      -4.140  19.222  12.829  0.00  0.00    +0.134 A 
ATOM     64  CE1 TYR A  10      -3.269  18.909  11.843  0.00  0.00    +0.036 A 
ATOM     65  CD1 TYR A  10      -1.905  19.013  12.075  0.00  0.00    -0.001 A 
BRANCH  63  66
ATOM     66  OH  TYR A  10      -5.465  19.097  12.613  0.00  0.00    -0.506 OA
ATOM     67  HH  TYR A  10      -5.844  18.449  13.258  0.00  0.00    +0.292 HD
ENDBRANCH  63  66
ENDBRANCH  59  60
ENDBRANCH  21  59
ENDBRANCH  18  21
ENDBRANCH  16  17
ENDBRANCH  14  16
ENDBRANCH  10  12
ENDBRANCH   7  10
ENDBRANCH   5   6
BRANCH   5  68
ATOM     68  CB  LEU A   7       2.018  17.877  18.747  0.00  0.00    +0.029 C 
BRANCH  68  69
ATOM     69  CG  LEU A   7       0.750  18.504  19.297  0.00  0.00    +0.002 C 
ATOM     70  CD2 LEU A   7       0.704  18.228  20.801  0.00  0.00    +0.000 C 
ATOM     71  CD1 LEU A   7      -0.441  17.923  18.533  0.00  0.00    +0.000 C 
ENDBRANCH  68  69
ENDBRANCH   5  68
ENDBRANCH   2   5
BRANCH   1  72
ATOM     72  CA  TYR A   6       5.326  16.936  15.279  0.00  0.00    +0.153 C 
BRANCH  72  74
ATOM     73  C   MET A   5       6.649  18.564  16.538  0.00  0.00    +0.241 C 
ATOM     74  N   TYR A   6       6.325  17.292  16.317  0.00  0.00    -0.297 N 
ATOM     75  H   TYR A   6       6.776  16.541  16.877  0.00  0.00    +0.150 HD
ATOM     76  O   MET A   5       6.225  19.501  15.842  0.00  0.00    -0.273 OA
BRANCH  73  77
ATOM     77  CA  MET A   5       7.637  18.854  17.649  0.00  0.00    +0.149 C 
BRANCH  77  80
ATOM     78  C   TYR A   4       6.238  18.139  19.496  0.00  0.00    +0.241 C 
ATOM     79  O   TYR A   4       5.450  19.020  19.225  0.00  0.00    -0.273 OA
ATOM     80  N   MET A   5       7.379  18.009  18.814  0.00  0.00    -0.297 N 
ATOM     81  H   MET A   5       8.085  17.306  19.112  0.00  0.00    +0.150 HD
BRANCH  78  82
ATOM     82  CA  TYR A   4       5.954  17.178  20.656  0.00  0.00    +0.153 C 
BRANCH  82  84
ATOM     83  C   PRO A   3       5.876  15.044  19.599  0.00  0.00    +0.241 C 
ATOM     84  N   TYR A   4       6.495  15.872  20.433  0.00  0.00    -0.297 N 
ATOM     85  H   TYR A   4       7.365  15.574  20.919  0.00  0.00    +0.150 HD
ATOM     86  O   PRO A   3       4.822  15.362  19.013  0.00  0.00    -0.273 OA
BRANCH  83  92
ATOM     87  C   TYR A   2       8.494  14.644  18.258  0.00  0.00    +0.244 C 
ATOM     88  N   PRO A   3       8.060  13.812  19.222  0.00  0.00    -0.272 N 
ATOM     89  CD  PRO A   3       8.755  12.808  20.066  0.00  0.00    +0.094 C 
ATOM     90  CG  PRO A   3       7.652  11.839  20.394  0.00  0.00    +0.024 C 
ATOM     91  CB  PRO A   3       6.372  12.647  20.415  0.00  0.00    +0.031 C 
ATOM     92  CA  PRO A   3       6.577  13.682  19.309  0.00  0.00    +0.152 C 
ATOM     93  O   TYR A   2       7.732  15.261  17.534  0.00  0.00    -0.273 OA
BRANCH  87  94
ATOM     94  CA  TYR A   2       9.997  14.842  18.097  0.00  0.00    +0.153 C 
BRANCH  94  97
ATOM     95  C   ILE A   1      10.561  15.509  20.346  0.00  0.00    +0.238 C 
ATOM     96  O   ILE A   1       9.642  16.342  20.329  0.00  0.00    -0.274 OA
ATOM     97  N   TYR A   2      10.761  14.674  19.324  0.00  0.00    -0.297 N 
ATOM     98  H   TYR A   2      11.459  13.907  19.404  0.00  0.00    +0.150 HD
BRANCH  95  99
ATOM     99  CA  ILE A   1      11.531  15.453  21.531  0.00  0.00    +0.145 C 
BRANCH  99 100
ATOM    100  N   ILE A   1      11.886  14.112  21.919  0.00  0.00    -0.238 NA
ATOM    101  H   ILE A   1      12.694  13.654  21.450  0.00  0.00    +0.142 HD
ENDBRANCH  99 100
BRANCH  99 102
ATOM    102  CB  ILE A   1      12.795  16.258  21.116  0.00  0.00    +0.025 C 
ATOM    103  CG2 ILE A   1      12.414  17.703  20.808  0.00  0.00    +0.002 C 
BRANCH 102 104
ATOM    104  CG1 ILE A   1      13.875  16.291  22.198  0.00  0.00    +0.002 C 
ATOM    105  CD1 ILE A   1      13.571  17.127  23.393  0.00  0.00    +0.000 C 
ENDBRANCH 102 104
ENDBRANCH  99 102
ENDBRANCH  95  99
ENDBRANCH  94  97
BRANCH  94 106
ATOM    106  CB  TYR A   2      10.505  14.001  16.910  0.00  0.00    +0.055 C 
BRANCH 106 107
ATOM    107  CG  TYR A   2      11.742  14.569  16.304  0.00  0.00    -0.020 A 
ATOM    108  CD2 TYR A   2      12.922  13.848  16.278  0.00  0.00    -0.001 A 
ATOM    109  CE2 TYR A   2      14.076  14.367  15.693  0.00  0.00    +0.036 A 
ATOM    110  CZ  TYR A   2      14.083  15.604  15.145  0.00  0.00    +0.134 A 
ATOM    111  CE1 TYR A   2      12.904  16.357  15.109  0.00  0.00    +0.036 A 
ATOM    112  CD1 TYR A   2      11.733  15.817  15.671  0.00  0.00    -0.001 A 
BRANCH 110 113
ATOM    113  OH  TYR A   2      15.242  16.060  14.584  0.00  0.00    -0.506 OA
ATOM    114  HH  TYR A   2      15.512  15.455  13.848  0.00  0.00    +0.292 HD
ENDBRANCH 110 113
ENDBRANCH 106 107
ENDBRANCH  94 106
ENDBRANCH  87  94
ENDBRANCH  83  92
ENDBRANCH  82  84
BRANCH  82 115
ATOM    115  CB  TYR A   4       6.515  17.729  21.979  0.00  0.00    +0.055 C 
BRANCH 115 116
ATOM    116  CG  TYR A   4       6.203  16.883  23.155  0.00  0.00    -0.020 A 
ATOM    117  CD2 TYR A   4       4.950  16.946  23.754  0.00  0.00    -0.001 A 
ATOM    118  CE2 TYR A   4       4.640  16.172  24.844  0.00  0.00    +0.036 A 
ATOM    119  CZ  TYR A   4       5.596  15.327  25.380  0.00  0.00    +0.134 A 
ATOM    120  CE1 TYR A   4       6.859  15.233  24.814  0.00  0.00    +0.036 A 
ATOM    121  CD1 TYR A   4       7.166  16.026  23.717  0.00  0.00    -0.001 A 
BRANCH 119 122
ATOM    122  OH  TYR A   4       5.219  14.562  26.478  0.00  0.00    -0.506 OA
ATOM    123  HH  TYR A   4       5.287  13.601  26.248  0.00  0.00    +0.292 HD
ENDBRANCH 119 122
ENDBRANCH 115 116
ENDBRANCH  82 115
ENDBRANCH  78  82
ENDBRANCH  77  80
BRANCH  77 124
ATOM    124  CB  MET A   5       9.050  18.670  17.095  0.00  0.00    +0.041 C 
BRANCH 124 125
ATOM    125  CG  MET A   5      10.133  19.211  18.010  0.00  0.00    +0.060 C 
BRANCH 125 126
ATOM    126  SD  MET A   5      10.294  20.993  17.824  0.00  0.00    -0.139 S 
ATOM    127  CE  MET A   5      11.854  21.230  18.707  0.00  0.00    +0.069 C 
ENDBRANCH 125 126
ENDBRANCH 124 125
ENDBRANCH  77 124
ENDBRANCH  73  77
ENDBRANCH  72  74
BRANCH  72 128
ATOM    128  CB  TYR A   6       5.050  15.433  15.248  0.00  0.00    +0.055 C 
BRANCH 128 129
ATOM    129  CG  TYR A   6       5.873  14.590  14.293  0.00  0.00    -0.020 A 
ATOM    130  CD2 TYR A   6       6.827  13.649  14.743  0.00  0.00    -0.001 A 
ATOM    131  CE2 TYR A   6       7.534  12.871  13.822  0.00  0.00    +0.036 A 
ATOM    132  CZ  TYR A   6       7.321  13.041  12.473  0.00  0.00    +0.134 A 
ATOM    133  CE1 TYR A   6       6.421  13.980  12.028  0.00  0.00    +0.036 A 
ATOM    134  CD1 TYR A   6       5.692  14.725  12.944  0.00  0.00    -0.001 A 
BRANCH 132 135
ATOM    135  OH  TYR A   6       7.974  12.318  11.462  0.00  0.00    -0.506 OA
ATOM    136  HH  TYR A   6       7.650  12.623  10.578  0.00  0.00    +0.292 HD
ENDBRANCH 132 135
ENDBRANCH 128 129
ENDBRANCH  72 128
ENDBRANCH   1  72
TORSDOF 51
REMARK  Name = ../refined-set-2016/4x5z/4x5z_pocket.pdb
REMARK  231 active torsions:
REMARK  status: ('A' for Active; 'I' for Inactive)
REMARK    1  A    between atoms: _1  and  _3
REMARK    2  A    between atoms: _3  and  _4
REMARK    3  A    between atoms: _3  and  _6
REMARK    4  A    between atoms: _6  and  _7
REMARK    5  A    between atoms: _10  and  _12
REMARK    6  A    between atoms: _12  and  _13
REMARK    7  A    between atoms: _12  and  _15
REMARK    8  A    between atoms: _15  and  _16
REMARK    9  A    between atoms: _18  and  _20
REMARK   10  A    between atoms: _20  and  _21
REMARK   11  A    between atoms: _20  and  _23
REMARK   12  A    between atoms: _23  and  _24
REMARK   13  A    between atoms: _26  and  _28
REMARK   14  A    between atoms: _28  and  _29
REMARK   15  A    between atoms: _31  and  _33
REMARK   16  A    between atoms: _33  and  _34
REMARK   17  A    between atoms: _37  and  _39
REMARK   18  A    between atoms: _39  and  _40
REMARK   19  A    between atoms: _39  and  _42
REMARK   20  A    between atoms: _42  and  _43
REMARK   21  A    between atoms: _49  and  _51
REMARK   22  A    between atoms: _51  and  _52
REMARK   23  A    between atoms: _51  and  _54
REMARK   24  A    between atoms: _54  and  _55
REMARK   25  A    between atoms: _58  and  _60
REMARK   26  A    between atoms: _60  and  _61
REMARK   27  A    between atoms: _64  and  _66
REMARK   28  A    between atoms: _66  and  _67
REMARK   29  A    between atoms: _66  and  _69
REMARK   30  A    between atoms: _69  and  _70
REMARK   31  A    between atoms: _73  and  _75
REMARK   32  A    between atoms: _75  and  _76
REMARK   33  A    between atoms: _75  and  _78
REMARK   34  A    between atoms: _78  and  _79
REMARK   35  A    between atoms: _81  and  _83
REMARK   36  A    between atoms: _83  and  _84
REMARK   37  A    between atoms: _83  and  _86
REMARK   38  A    between atoms: _86  and  _87
REMARK   39  A    between atoms: _87  and  _88
REMARK   40  A    between atoms: _91  and  _93
REMARK   41  A    between atoms: _93  and  _94
REMARK   42  A    between atoms: _93  and  _96
REMARK   43  A    between atoms: _96  and  _97
REMARK   44  A    between atoms: _100  and  _102
REMARK   45  A    between atoms: _102  and  _103
REMARK   46  A    between atoms: _102  and  _105
REMARK   47  A    between atoms: _105  and  _106
REMARK   48  A    between atoms: _111  and  _113
REMARK   49  A    between atoms: _113  and  _114
REMARK   50  A    between atoms: _117  and  _119
REMARK   51  A    between atoms: _119  and  _120
REMARK   52  A    between atoms: _119  and  _122
REMARK   53  A    between atoms: _122  and  _123
REMARK   54  A    between atoms: _133  and  _135
REMARK   55  A    between atoms: _135  and  _136
REMARK   56  A    between atoms: _135  and  _138
REMARK   57  A    between atoms: _138  and  _139
REMARK   58  A    between atoms: _142  and  _144
REMARK   59  A    between atoms: _144  and  _145
REMARK   60  A    between atoms: _144  and  _147
REMARK   61  A    between atoms: _147  and  _148
REMARK   62  A    between atoms: _158  and  _160
REMARK   63  A    between atoms: _160  and  _161
REMARK   64  A    between atoms: _160  and  _163
REMARK   65  A    between atoms: _163  and  _164
REMARK   66  A    between atoms: _169  and  _171
REMARK   67  A    between atoms: _171  and  _172
REMARK   68  A    between atoms: _174  and  _176
REMARK   69  A    between atoms: _176  and  _177
REMARK   70  A    between atoms: _176  and  _179
REMARK   71  A    between atoms: _179  and  _180
REMARK   72  A    between atoms: _190  and  _192
REMARK   73  A    between atoms: _192  and  _193
REMARK   74  A    between atoms: _192  and  _195
REMARK   75  A    between atoms: _195  and  _196
REMARK   76  A    between atoms: _199  and  _201
REMARK   77  A    between atoms: _201  and  _202
REMARK   78  A    between atoms: _201  and  _204
REMARK   79  A    between atoms: _204  and  _205
REMARK   80  A    between atoms: _205  and  _206
REMARK   81  A    between atoms: _208  and  _210
REMARK   82  A    between atoms: _210  and  _211
REMARK   83  A    between atoms: _210  and  _213
REMARK   84  A    between atoms: _215  and  _217
REMARK   85  A    between atoms: _217  and  _218
REMARK   86  A    between atoms: _221  and  _223
REMARK   87  A    between atoms: _223  and  _224
REMARK   88  A    between atoms: _223  and  _226
REMARK   89  A    between atoms: _226  and  _227
REMARK   90  A    between atoms: _233  and  _235
REMARK   91  A    between atoms: _235  and  _236
REMARK   92  A    between atoms: _235  and  _238
REMARK   93  A    between atoms: _238  and  _239
REMARK   94  A    between atoms: _239  and  _240
REMARK   95  A    between atoms: _242  and  _244
REMARK   96  A    between atoms: _244  and  _245
REMARK   97  A    between atoms: _244  and  _247
REMARK   98  A    between atoms: _250  and  _252
REMARK   99  A    between atoms: _252  and  _253
REMARK  100  A    between atoms: _252  and  _255
REMARK  101  A    between atoms: _257  and  _259
REMARK  102  A    between atoms: _259  and  _260
REMARK  103  A    between atoms: _263  and  _265
REMARK  104  A    between atoms: _265  and  _266
REMARK  105  A    between atoms: _265  and  _268
REMARK  106  A    between atoms: _268  and  _269
REMARK  107  A    between atoms: _269  and  _270
REMARK  108  A    between atoms: _275  and  _277
REMARK  109  A    between atoms: _277  and  _278
REMARK  110  A    between atoms: _277  and  _280
REMARK  111  A    between atoms: _280  and  _281
REMARK  112  A    between atoms: _286  and  _287
REMARK  113  A    between atoms: _290  and  _291
REMARK  114  A    between atoms: _296  and  _298
REMARK  115  A    between atoms: _298  and  _299
REMARK  116  A    between atoms: _298  and  _301
REMARK  117  A    between atoms: _301  and  _302
REMARK  118  A    between atoms: _302  and  _303
REMARK  119  A    between atoms: _305  and  _307
REMARK  120  A    between atoms: _307  and  _308
REMARK  121  A    between atoms: _311  and  _313
REMARK  122  A    between atoms: _313  and  _314
REMARK  123  A    between atoms: _313  and  _316
REMARK  124  A    between atoms: _316  and  _317
REMARK  125  A    between atoms: _320  and  _322
REMARK  126  A    between atoms: _322  and  _323
REMARK  127  A    between atoms: _325  and  _327
REMARK  128  A    between atoms: _327  and  _328
REMARK  129  A    between atoms: _327  and  _330
REMARK  130  A    between atoms: _330  and  _331
REMARK  131  A    between atoms: _336  and  _338
REMARK  132  A    between atoms: _338  and  _339
REMARK  133  A    between atoms: _338  and  _341
REMARK  134  A    between atoms: _341  and  _342
REMARK  135  A    between atoms: _345  and  _347
REMARK  136  A    between atoms: _347  and  _348
REMARK  137  A    between atoms: _347  and  _350
REMARK  138  A    between atoms: _350  and  _351
REMARK  139  A    between atoms: _356  and  _357
REMARK  140  A    between atoms: _359  and  _361
REMARK  141  A    between atoms: _361  and  _362
REMARK  142  A    between atoms: _361  and  _364
REMARK  143  A    between atoms: _364  and  _365
REMARK  144  A    between atoms: _368  and  _370
REMARK  145  A    between atoms: _370  and  _371
REMARK  146  A    between atoms: _370  and  _373
REMARK  147  A    between atoms: _373  and  _374
REMARK  148  A    between atoms: _379  and  _380
REMARK  149  A    between atoms: _383  and  _384
REMARK  150  A    between atoms: _389  and  _391
REMARK  151  A    between atoms: _391  and  _392
REMARK  152  A    between atoms: _391  and  _394
REMARK  153  A    between atoms: _394  and  _395
REMARK  154  A    between atoms: _400  and  _401
REMARK  155  A    between atoms: _403  and  _405
REMARK  156  A    between atoms: _405  and  _406
REMARK  157  A    between atoms: _405  and  _408
REMARK  158  A    between atoms: _408  and  _409
REMARK  159  A    between atoms: _409  and  _410
REMARK  160  A    between atoms: _412  and  _414
REMARK  161  A    between atoms: _414  and  _415
REMARK  162  A    between atoms: _414  and  _417
REMARK  163  A    between atoms: _417  and  _418
REMARK  164  A    between atoms: _423  and  _424
REMARK  165  A    between atoms: _426  and  _428
REMARK  166  A    between atoms: _428  and  _429
REMARK  167  A    between atoms: _428  and  _431
REMARK  168  A    between atoms: _431  and  _432
REMARK  169  A    between atoms: _435  and  _437
REMARK  170  A    between atoms: _437  and  _438
REMARK  171  A    between atoms: _441  and  _443
REMARK  172  A    between atoms: _443  and  _444
REMARK  173  A    between atoms: _446  and  _448
REMARK  174  A    between atoms: _448  and  _449
REMARK  175  A    between atoms: _448  and  _451
REMARK  176  A    between atoms: _451  and  _452
REMARK  177  A    between atoms: _457  and  _458
REMARK  178  A    between atoms: _460  and  _462
REMARK  179  A    between atoms: _462  and  _463
REMARK  180  A    between atoms: _462  and  _465
REMARK  181  A    between atoms: _465  and  _466
REMARK  182  A    between atoms: _471  and  _473
REMARK  183  A    between atoms: _473  and  _474
REMARK  184  A    between atoms: _473  and  _476
REMARK  185  A    between atoms: _478  and  _480
REMARK  186  A    between atoms: _480  and  _481
REMARK  187  A    between atoms: _480  and  _483
REMARK  188  A    between atoms: _483  and  _484
REMARK  189  A    between atoms: _484  and  _485
REMARK  190  A    between atoms: _485  and  _486
REMARK  191  A    between atoms: _495  and  _497
REMARK  192  A    between atoms: _497  and  _498
REMARK  193  A    between atoms: _501  and  _503
REMARK  194  A    between atoms: _503  and  _504
REMARK  195  A    between atoms: _507  and  _509
REMARK  196  A    between atoms: _509  and  _510
REMARK  197  A    between atoms: _509  and  _512
REMARK  198  A    between atoms: _512  and  _513
REMARK  199  A    between atoms: _523  and  _525
REMARK  200  A    between atoms: _525  and  _526
REMARK  201  A    between atoms: _525  and  _528
REMARK  202  A    between atoms: _528  and  _529
REMARK  203  A    between atoms: _532  and  _534
REMARK  204  A    between atoms: _534  and  _535
REMARK  205  A    between atoms: _534  and  _537
REMARK  206  A    between atoms: _537  and  _538
REMARK  207  A    between atoms: _538  and  _539
REMARK  208  A    between atoms: _542  and  _544
REMARK  209  A    between atoms: _544  and  _545
REMARK  210  A    between atoms: _544  and  _547
REMARK  211  A    between atoms: _547  and  _548
REMARK  212  A    between atoms: _551  and  _553
REMARK  213  A    between atoms: _553  and  _554
REMARK  214  A    between atoms: _553  and  _556
REMARK  215  A    between atoms: _556  and  _557
REMARK  216  A    between atoms: _557  and  _558
REMARK  217  A    between atoms: _561  and  _563
REMARK  218  A    between atoms: _563  and  _564
REMARK  219  A    between atoms: _563  and  _566
REMARK  220  A    between atoms: _566  and  _567
REMARK  221  A    between atoms: _573  and  _575
REMARK  222  A    between atoms: _575  and  _576
REMARK  223  A    between atoms: _575  and  _578
REMARK  224  A    between atoms: _578  and  _579
REMARK  225  A    between atoms: _579  and  _580
REMARK  226  A    between atoms: _583  and  _585
REMARK  227  A    between atoms: _585  and  _586
REMARK  228  A    between atoms: _585  and  _588
REMARK  229  A    between atoms: _591  and  _593
REMARK  230  A    between atoms: _593  and  _594
REMARK  231  A    between atoms: _593  and  _596
REMARK                            x       y       z     vdW  Elec       q    Type
REMARK                         _______ _______ _______ _____ _____    ______ ____
ROOT
ATOM      1  CA  ALA A   1       1.672  25.389  19.141  0.00  0.00    +0.133 C 
ATOM      2  CB  ALA A   1       1.900  26.218  17.886  0.00  0.00    +0.027 C 
ENDROOT
BRANCH   1   3
ATOM      3  N   ALA A   1       0.264  25.494  19.606  0.00  0.00    -0.239 NA
ATOM      4  H   ALA A   1      -0.372  26.194  19.174  0.00  0.00    +0.142 HD
ENDBRANCH   1   3
BRANCH   1   5
ATOM      5  C   ALA A   1       2.640  25.810  20.229  0.00  0.00    +0.224 C 
ATOM      6  O   ALA A   1       3.588  25.082  20.489  0.00  0.00    -0.287 OA
ENDBRANCH   1   5
TORSDOF 2
REMARK  Name = ../refined-set-2016/4x5z/4x5z_pocket.pdb
REMARK  231 active torsions:
REMARK  status: ('A' for Active; 'I' for Inactive)
REMARK    1  A    between atoms: _1  and  _3
REMARK    2  A    between atoms: _3  and  _4
REMARK    3  A    between atoms: _3  and  _6
REMARK    4  A    between atoms: _6  and  _7
REMARK    5  A    between atoms: _10  and  _12
REMARK    6  A    between atoms: _12  and  _13
REMARK    7  A    between atoms: _12  and  _15
REMARK    8  A    between atoms: _15  and  _16
REMARK    9  A    between atoms: _18  and  _20
REMARK   10  A    between atoms: _20  and  _21
REMARK   11  A    between atoms: _20  and  _23
REMARK   12  A    between atoms: _23  and  _24
REMARK   13  A    between atoms: _26  and  _28
REMARK   14  A    between atoms: _28  and  _29
REMARK   15  A    between atoms: _31  and  _33
REMARK   16  A    between atoms: _33  and  _34
REMARK   17  A    between atoms: _37  and  _39
REMARK   18  A    between atoms: _39  and  _40
REMARK   19  A    between atoms: _39  and  _42
REMARK   20  A    between atoms: _42  and  _43
REMARK   21  A    between atoms: _49  and  _51
REMARK   22  A    between atoms: _51  and  _52
REMARK   23  A    between atoms: _51  and  _54
REMARK   24  A    between atoms: _54  and  _55
REMARK   25  A    between atoms: _58  and  _60
REMARK   26  A    between atoms: _60  and  _61
REMARK   27  A    between atoms: _64  and  _66
REMARK   28  A    between atoms: _66  and  _67
REMARK   29  A    between atoms: _66  and  _69
REMARK   30  A    between atoms: _69  and  _70
REMARK   31  A    between atoms: _73  and  _75
REMARK   32  A    between atoms: _75  and  _76
REMARK   33  A    between atoms: _75  and  _78
REMARK   34  A    between atoms: _78  and  _79
REMARK   35  A    between atoms: _81  and  _83
REMARK   36  A    between atoms: _83  and  _84
REMARK   37  A    between atoms: _83  and  _86
REMARK   38  A    between atoms: _86  and  _87
REMARK   39  A    between atoms: _87  and  _88
REMARK   40  A    between atoms: _91  and  _93
REMARK   41  A    between atoms: _93  and  _94
REMARK   42  A    between atoms: _93  and  _96
REMARK   43  A    between atoms: _96  and  _97
REMARK   44  A    between atoms: _100  and  _102
REMARK   45  A    between atoms: _102  and  _103
REMARK   46  A    between atoms: _102  and  _105
REMARK   47  A    between atoms: _105  and  _106
REMARK   48  A    between atoms: _111  and  _113
REMARK   49  A    between atoms: _113  and  _114
REMARK   50  A    between atoms: _117  and  _119
REMARK   51  A    between atoms: _119  and  _120
REMARK   52  A    between atoms: _119  and  _122
REMARK   53  A    between atoms: _122  and  _123
REMARK   54  A    between atoms: _133  and  _135
REMARK   55  A    between atoms: _135  and  _136
REMARK   56  A    between atoms: _135  and  _138
REMARK   57  A    between atoms: _138  and  _139
REMARK   58  A    between atoms: _142  and  _144
REMARK   59  A    between atoms: _144  and  _145
REMARK   60  A    between atoms: _144  and  _147
REMARK   61  A    between atoms: _147  and  _148
REMARK   62  A    between atoms: _158  and  _160
REMARK   63  A    between atoms: _160  and  _161
REMARK   64  A    between atoms: _160  and  _163
REMARK   65  A    between atoms: _163  and  _164
REMARK   66  A    between atoms: _169  and  _171
REMARK   67  A    between atoms: _171  and  _172
REMARK   68  A    between atoms: _174  and  _176
REMARK   69  A    between atoms: _176  and  _177
REMARK   70  A    between atoms: _176  and  _179
REMARK   71  A    between atoms: _179  and  _180
REMARK   72  A    between atoms: _190  and  _192
REMARK   73  A    between atoms: _192  and  _193
REMARK   74  A    between atoms: _192  and  _195
REMARK   75  A    between atoms: _195  and  _196
REMARK   76  A    between atoms: _199  and  _201
REMARK   77  A    between atoms: _201  and  _202
REMARK   78  A    between atoms: _201  and  _204
REMARK   79  A    between atoms: _204  and  _205
REMARK   80  A    between atoms: _205  and  _206
REMARK   81  A    between atoms: _208  and  _210
REMARK   82  A    between atoms: _210  and  _211
REMARK   83  A    between atoms: _210  and  _213
REMARK   84  A    between atoms: _215  and  _217
REMARK   85  A    between atoms: _217  and  _218
REMARK   86  A    between atoms: _221  and  _223
REMARK   87  A    between atoms: _223  and  _224
REMARK   88  A    between atoms: _223  and  _226
REMARK   89  A    between atoms: _226  and  _227
REMARK   90  A    between atoms: _233  and  _235
REMARK   91  A    between atoms: _235  and  _236
REMARK   92  A    between atoms: _235  and  _238
REMARK   93  A    between atoms: _238  and  _239
REMARK   94  A    between atoms: _239  and  _240
REMARK   95  A    between atoms: _242  and  _244
REMARK   96  A    between atoms: _244  and  _245
REMARK   97  A    between atoms: _244  and  _247
REMARK   98  A    between atoms: _250  and  _252
REMARK   99  A    between atoms: _252  and  _253
REMARK  100  A    between atoms: _252  and  _255
REMARK  101  A    between atoms: _257  and  _259
REMARK  102  A    between atoms: _259  and  _260
REMARK  103  A    between atoms: _263  and  _265
REMARK  104  A    between atoms: _265  and  _266
REMARK  105  A    between atoms: _265  and  _268
REMARK  106  A    between atoms: _268  and  _269
REMARK  107  A    between atoms: _269  and  _270
REMARK  108  A    between atoms: _275  and  _277
REMARK  109  A    between atoms: _277  and  _278
REMARK  110  A    between atoms: _277  and  _280
REMARK  111  A    between atoms: _280  and  _281
REMARK  112  A    between atoms: _286  and  _287
REMARK  113  A    between atoms: _290  and  _291
REMARK  114  A    between atoms: _296  and  _298
REMARK  115  A    between atoms: _298  and  _299
REMARK  116  A    between atoms: _298  and  _301
REMARK  117  A    between atoms: _301  and  _302
REMARK  118  A    between atoms: _302  and  _303
REMARK  119  A    between atoms: _305  and  _307
REMARK  120  A    between atoms: _307  and  _308
REMARK  121  A    between atoms: _311  and  _313
REMARK  122  A    between atoms: _313  and  _314
REMARK  123  A    between atoms: _313  and  _316
REMARK  124  A    between atoms: _316  and  _317
REMARK  125  A    between atoms: _320  and  _322
REMARK  126  A    between atoms: _322  and  _323
REMARK  127  A    between atoms: _325  and  _327
REMARK  128  A    between atoms: _327  and  _328
REMARK  129  A    between atoms: _327  and  _330
REMARK  130  A    between atoms: _330  and  _331
REMARK  131  A    between atoms: _336  and  _338
REMARK  132  A    between atoms: _338  and  _339
REMARK  133  A    between atoms: _338  and  _341
REMARK  134  A    between atoms: _341  and  _342
REMARK  135  A    between atoms: _345  and  _347
REMARK  136  A    between atoms: _347  and  _348
REMARK  137  A    between atoms: _347  and  _350
REMARK  138  A    between atoms: _350  and  _351
REMARK  139  A    between atoms: _356  and  _357
REMARK  140  A    between atoms: _359  and  _361
REMARK  141  A    between atoms: _361  and  _362
REMARK  142  A    between atoms: _361  and  _364
REMARK  143  A    between atoms: _364  and  _365
REMARK  144  A    between atoms: _368  and  _370
REMARK  145  A    between atoms: _370  and  _371
REMARK  146  A    between atoms: _370  and  _373
REMARK  147  A    between atoms: _373  and  _374
REMARK  148  A    between atoms: _379  and  _380
REMARK  149  A    between atoms: _383  and  _384
REMARK  150  A    between atoms: _389  and  _391
REMARK  151  A    between atoms: _391  and  _392
REMARK  152  A    between atoms: _391  and  _394
REMARK  153  A    between atoms: _394  and  _395
REMARK  154  A    between atoms: _400  and  _401
REMARK  155  A    between atoms: _403  and  _405
REMARK  156  A    between atoms: _405  and  _406
REMARK  157  A    between atoms: _405  and  _408
REMARK  158  A    between atoms: _408  and  _409
REMARK  159  A    between atoms: _409  and  _410
REMARK  160  A    between atoms: _412  and  _414
REMARK  161  A    between atoms: _414  and  _415
REMARK  162  A    between atoms: _414  and  _417
REMARK  163  A    between atoms: _417  and  _418
REMARK  164  A    between atoms: _423  and  _424
REMARK  165  A    between atoms: _426  and  _428
REMARK  166  A    between atoms: _428  and  _429
REMARK  167  A    between atoms: _428  and  _431
REMARK  168  A    between atoms: _431  and  _432
REMARK  169  A    between atoms: _435  and  _437
REMARK  170  A    between atoms: _437  and  _438
REMARK  171  A    between atoms: _441  and  _443
REMARK  172  A    between atoms: _443  and  _444
REMARK  173  A    between atoms: _446  and  _448
REMARK  174  A    between atoms: _448  and  _449
REMARK  175  A    between atoms: _448  and  _451
REMARK  176  A    between atoms: _451  and  _452
REMARK  177  A    between atoms: _457  and  _458
REMARK  178  A    between atoms: _460  and  _462
REMARK  179  A    between atoms: _462  and  _463
REMARK  180  A    between atoms: _462  and  _465
REMARK  181  A    between atoms: _465  and  _466
REMARK  182  A    between atoms: _471  and  _473
REMARK  183  A    between atoms: _473  and  _474
REMARK  184  A    between atoms: _473  and  _476
REMARK  185  A    between atoms: _478  and  _480
REMARK  186  A    between atoms: _480  and  _481
REMARK  187  A    between atoms: _480  and  _483
REMARK  188  A    between atoms: _483  and  _484
REMARK  189  A    between atoms: _484  and  _485
REMARK  190  A    between atoms: _485  and  _486
REMARK  191  A    between atoms: _495  and  _497
REMARK  192  A    between atoms: _497  and  _498
REMARK  193  A    between atoms: _501  and  _503
REMARK  194  A    between atoms: _503  and  _504
REMARK  195  A    between atoms: _507  and  _509
REMARK  196  A    between atoms: _509  and  _510
REMARK  197  A    between atoms: _509  and  _512
REMARK  198  A    between atoms: _512  and  _513
REMARK  199  A    between atoms: _523  and  _525
REMARK  200  A    between atoms: _525  and  _526
REMARK  201  A    between atoms: _525  and  _528
REMARK  202  A    between atoms: _528  and  _529
REMARK  203  A    between atoms: _532  and  _534
REMARK  204  A    between atoms: _534  and  _535
REMARK  205  A    between atoms: _534  and  _537
REMARK  206  A    between atoms: _537  and  _538
REMARK  207  A    between atoms: _538  and  _539
REMARK  208  A    between atoms: _542  and  _544
REMARK  209  A    between atoms: _544  and  _545
REMARK  210  A    between atoms: _544  and  _547
REMARK  211  A    between atoms: _547  and  _548
REMARK  212  A    between atoms: _551  and  _553
REMARK  213  A    between atoms: _553  and  _554
REMARK  214  A    between atoms: _553  and  _556
REMARK  215  A    between atoms: _556  and  _557
REMARK  216  A    between atoms: _557  and  _558
REMARK  217  A    between atoms: _561  and  _563
REMARK  218  A    between atoms: _563  and  _564
REMARK  219  A    between atoms: _563  and  _566
REMARK  220  A    between atoms: _566  and  _567
REMARK  221  A    between atoms: _573  and  _575
REMARK  222  A    between atoms: _575  and  _576
REMARK  223  A    between atoms: _575  and  _578
REMARK  224  A    between atoms: _578  and  _579
REMARK  225  A    between atoms: _579  and  _580
REMARK  226  A    between atoms: _583  and  _585
REMARK  227  A    between atoms: _585  and  _586
REMARK  228  A    between atoms: _585  and  _588
REMARK  229  A    between atoms: _591  and  _593
REMARK  230  A    between atoms: _593  and  _594
REMARK  231  A    between atoms: _593  and  _596
REMARK                            x       y       z     vdW  Elec       q    Type
REMARK                         _______ _______ _______ _____ _____    ______ ____
ROOT
ATOM      1  CA  TRP A   2       6.873  23.835  22.093  0.00  0.00    +0.141 C 
ENDROOT
BRANCH   1   4
ATOM      2  C   ALA A   1       5.069  22.222  22.401  0.00  0.00    +0.238 C 
ATOM      3  O   ALA A   1       5.889  21.405  22.786  0.00  0.00    -0.274 OA
ATOM      4  N   TRP A   2       5.437  23.425  21.995  0.00  0.00    -0.298 N 
ATOM      5  H   TRP A   2       4.731  24.084  21.609  0.00  0.00    +0.150 HD
BRANCH   2   6
ATOM      6  CA  ALA A   1       3.567  21.882  22.449  0.00  0.00    +0.145 C 
ATOM      7  CB  ALA A   1       3.059  21.386  21.090  0.00  0.00    +0.028 C 
BRANCH   6   8
ATOM      8  N   ALA A   1       2.850  23.080  22.891  0.00  0.00    -0.238 NA
ATOM      9  H   ALA A   1       2.241  23.595  22.223  0.00  0.00    +0.142 HD
ENDBRANCH   6   8
ENDBRANCH   2   6
ENDBRANCH   1   4
BRANCH   1  10
ATOM     10  C   TRP A   2       7.372  23.946  23.523  0.00  0.00    +0.227 C 
ATOM     11  O   TRP A   2       8.471  23.553  23.794  0.00  0.00    -0.286 OA
ENDBRANCH   1  10
BRANCH   1  12
ATOM     12  CB  TRP A   2       7.176  25.125  21.317  0.00  0.00    +0.056 C 
BRANCH  12  13
ATOM     13  CG  TRP A   2       7.176  24.968  19.823  0.00  0.00    -0.002 A 
ATOM     14  CD1 TRP A   2       7.808  24.006  19.106  0.00  0.00    +0.068 A 
ATOM     15  NE1 TRP A   2       7.604  24.199  17.768  0.00  0.00    -0.352 N 
ATOM     16  CE2 TRP A   2       6.829  25.297  17.583  0.00  0.00    +0.056 A 
ATOM     17  CZ2 TRP A   2       6.349  25.894  16.400  0.00  0.00    +0.017 A 
ATOM     18  CH2 TRP A   2       5.594  27.033  16.531  0.00  0.00    +0.001 A 
ATOM     19  CZ3 TRP A   2       5.286  27.561  17.809  0.00  0.00    +0.000 A 
ATOM     20  CE3 TRP A   2       5.763  26.977  18.957  0.00  0.00    +0.001 A 
ATOM     21  HE1 TRP A   2       7.984  23.597  17.010  0.00  0.00    +0.166 HD
ATOM     22  CD2 TRP A   2       6.536  25.816  18.865  0.00  0.00    +0.013 A 
ENDBRANCH  12  13
ENDBRANCH   1  12
TORSDOF 6
REMARK  Name = ../refined-set-2016/4x5z/4x5z_pocket.pdb
REMARK  231 active torsions:
REMARK  status: ('A' for Active; 'I' for Inactive)
REMARK    1  A    between atoms: _1  and  _3
REMARK    2  A    between atoms: _3  and  _4
REMARK    3  A    between atoms: _3  and  _6
REMARK    4  A    between atoms: _6  and  _7
REMARK    5  A    between atoms: _10  and  _12
REMARK    6  A    between atoms: _12  and  _13
REMARK    7  A    between atoms: _12  and  _15
REMARK    8  A    between atoms: _15  and  _16
REMARK    9  A    between atoms: _18  and  _20
REMARK   10  A    between atoms: _20  and  _21
REMARK   11  A    between atoms: _20  and  _23
REMARK   12  A    between atoms: _23  and  _24
REMARK   13  A    between atoms: _26  and  _28
REMARK   14  A    between atoms: _28  and  _29
REMARK   15  A    between atoms: _31  and  _33
REMARK   16  A    between atoms: _33  and  _34
REMARK   17  A    between atoms: _37  and  _39
REMARK   18  A    between atoms: _39  and  _40
REMARK   19  A    between atoms: _39  and  _42
REMARK   20  A    between atoms: _42  and  _43
REMARK   21  A    between atoms: _49  and  _51
REMARK   22  A    between atoms: _51  and  _52
REMARK   23  A    between atoms: _51  and  _54
REMARK   24  A    between atoms: _54  and  _55
REMARK   25  A    between atoms: _58  and  _60
REMARK   26  A    between atoms: _60  and  _61
REMARK   27  A    between atoms: _64  and  _66
REMARK   28  A    between atoms: _66  and  _67
REMARK   29  A    between atoms: _66  and  _69
REMARK   30  A    between atoms: _69  and  _70
REMARK   31  A    between atoms: _73  and  _75
REMARK   32  A    between atoms: _75  and  _76
REMARK   33  A    between atoms: _75  and  _78
REMARK   34  A    between atoms: _78  and  _79
REMARK   35  A    between atoms: _81  and  _83
REMARK   36  A    between atoms: _83  and  _84
REMARK   37  A    between atoms: _83  and  _86
REMARK   38  A    between atoms: _86  and  _87
REMARK   39  A    between atoms: _87  and  _88
REMARK   40  A    between atoms: _91  and  _93
REMARK   41  A    between atoms: _93  and  _94
REMARK   42  A    between atoms: _93  and  _96
REMARK   43  A    between atoms: _96  and  _97
REMARK   44  A    between atoms: _100  and  _102
REMARK   45  A    between atoms: _102  and  _103
REMARK   46  A    between atoms: _102  and  _105
REMARK   47  A    between atoms: _105  and  _106
REMARK   48  A    between atoms: _111  and  _113
REMARK   49  A    between atoms: _113  and  _114
REMARK   50  A    between atoms: _117  and  _119
REMARK   51  A    between atoms: _119  and  _120
REMARK   52  A    between atoms: _119  and  _122
REMARK   53  A    between atoms: _122  and  _123
REMARK   54  A    between atoms: _133  and  _135
REMARK   55  A    between atoms: _135  and  _136
REMARK   56  A    between atoms: _135  and  _138
REMARK   57  A    between atoms: _138  and  _139
REMARK   58  A    between atoms: _142  and  _144
REMARK   59  A    between atoms: _144  and  _145
REMARK   60  A    between atoms: _144  and  _147
REMARK   61  A    between atoms: _147  and  _148
REMARK   62  A    between atoms: _158  and  _160
REMARK   63  A    between atoms: _160  and  _161
REMARK   64  A    between atoms: _160  and  _163
REMARK   65  A    between atoms: _163  and  _164
REMARK   66  A    between atoms: _169  and  _171
REMARK   67  A    between atoms: _171  and  _172
REMARK   68  A    between atoms: _174  and  _176
REMARK   69  A    between atoms: _176  and  _177
REMARK   70  A    between atoms: _176  and  _179
REMARK   71  A    between atoms: _179  and  _180
REMARK   72  A    between atoms: _190  and  _192
REMARK   73  A    between atoms: _192  and  _193
REMARK   74  A    between atoms: _192  and  _195
REMARK   75  A    between atoms: _195  and  _196
REMARK   76  A    between atoms: _199  and  _201
REMARK   77  A    between atoms: _201  and  _202
REMARK   78  A    between atoms: _201  and  _204
REMARK   79  A    between atoms: _204  and  _205
REMARK   80  A    between atoms: _205  and  _206
REMARK   81  A    between atoms: _208  and  _210
REMARK   82  A    between atoms: _210  and  _211
REMARK   83  A    between atoms: _210  and  _213
REMARK   84  A    between atoms: _215  and  _217
REMARK   85  A    between atoms: _217  and  _218
REMARK   86  A    between atoms: _221  and  _223
REMARK   87  A    between atoms: _223  and  _224
REMARK   88  A    between atoms: _223  and  _226
REMARK   89  A    between atoms: _226  and  _227
REMARK   90  A    between atoms: _233  and  _235
REMARK   91  A    between atoms: _235  and  _236
REMARK   92  A    between atoms: _235  and  _238
REMARK   93  A    between atoms: _238  and  _239
REMARK   94  A    between atoms: _239  and  _240
REMARK   95  A    between atoms: _242  and  _244
REMARK   96  A    between atoms: _244  and  _245
REMARK   97  A    between atoms: _244  and  _247
REMARK   98  A    between atoms: _250  and  _252
REMARK   99  A    between atoms: _252  and  _253
REMARK  100  A    between atoms: _252  and  _255
REMARK  101  A    between atoms: _257  and  _259
REMARK  102  A    between atoms: _259  and  _260
REMARK  103  A    between atoms: _263  and  _265
REMARK  104  A    between atoms: _265  and  _266
REMARK  105  A    between atoms: _265  and  _268
REMARK  106  A    between atoms: _268  and  _269
REMARK  107  A    between atoms: _269  and  _270
REMARK  108  A    between atoms: _275  and  _277
REMARK  109  A    between atoms: _277  and  _278
REMARK  110  A    between atoms: _277  and  _280
REMARK  111  A    between atoms: _280  and  _281
REMARK  112  A    between atoms: _286  and  _287
REMARK  113  A    between atoms: _290  and  _291
REMARK  114  A    between atoms: _296  and  _298
REMARK  115  A    between atoms: _298  and  _299
REMARK  116  A    between atoms: _298  and  _301
REMARK  117  A    between atoms: _301  and  _302
REMARK  118  A    between atoms: _302  and  _303
REMARK  119  A    between atoms: _305  and  _307
REMARK  120  A    between atoms: _307  and  _308
REMARK  121  A    between atoms: _311  and  _313
REMARK  122  A    between atoms: _313  and  _314
REMARK  123  A    between atoms: _313  and  _316
REMARK  124  A    between atoms: _316  and  _317
REMARK  125  A    between atoms: _320  and  _322
REMARK  126  A    between atoms: _322  and  _323
REMARK  127  A    between atoms: _325  and  _327
REMARK  128  A    between atoms: _327  and  _328
REMARK  129  A    between atoms: _327  and  _330
REMARK  130  A    between atoms: _330  and  _331
REMARK  131  A    between atoms: _336  and  _338
REMARK  132  A    between atoms: _338  and  _339
REMARK  133  A    between atoms: _338  and  _341
REMARK  134  A    between atoms: _341  and  _342
REMARK  135  A    between atoms: _345  and  _347
REMARK  136  A    between atoms: _347  and  _348
REMARK  137  A    between atoms: _347  and  _350
REMARK  138  A    between atoms: _350  and  _351
REMARK  139  A    between atoms: _356  and  _357
REMARK  140  A    between atoms: _359  and  _361
REMARK  141  A    between atoms: _361  and  _362
REMARK  142  A    between atoms: _361  and  _364
REMARK  143  A    between atoms: _364  and  _365
REMARK  144  A    between atoms: _368  and  _370
REMARK  145  A    between atoms: _370  and  _371
REMARK  146  A    between atoms: _370  and  _373
REMARK  147  A    between atoms: _373  and  _374
REMARK  148  A    between atoms: _379  and  _380
REMARK  149  A    between atoms: _383  and  _384
REMARK  150  A    between atoms: _389  and  _391
REMARK  151  A    between atoms: _391  and  _392
REMARK  152  A    between atoms: _391  and  _394
REMARK  153  A    between atoms: _394  and  _395
REMARK  154  A    between atoms: _400  and  _401
REMARK  155  A    between atoms: _403  and  _405
REMARK  156  A    between atoms: _405  and  _406
REMARK  157  A    between atoms: _405  and  _408
REMARK  158  A    between atoms: _408  and  _409
REMARK  159  A    between atoms: _409  and  _410
REMARK  160  A    between atoms: _412  and  _414
REMARK  161  A    between atoms: _414  and  _415
REMARK  162  A    between atoms: _414  and  _417
REMARK  163  A    between atoms: _417  and  _418
REMARK  164  A    between atoms: _423  and  _424
REMARK  165  A    between atoms: _426  and  _428
REMARK  166  A    between atoms: _428  and  _429
REMARK  167  A    between atoms: _428  and  _431
REMARK  168  A    between atoms: _431  and  _432
REMARK  169  A    between atoms: _435  and  _437
REMARK  170  A    between atoms: _437  and  _438
REMARK  171  A    between atoms: _441  and  _443
REMARK  172  A    between atoms: _443  and  _444
REMARK  173  A    between atoms: _446  and  _448
REMARK  174  A    between atoms: _448  and  _449
REMARK  175  A    between atoms: _448  and  _451
REMARK  176  A    between atoms: _451  and  _452
REMARK  177  A    between atoms: _457  and  _458
REMARK  178  A    between atoms: _460  and  _462
REMARK  179  A    between atoms: _462  and  _463
REMARK  180  A    between atoms: _462  and  _465
REMARK  181  A    between atoms: _465  and  _466
REMARK  182  A    between atoms: _471  and  _473
REMARK  183  A    between atoms: _473  and  _474
REMARK  184  A    between atoms: _473  and  _476
REMARK  185  A    between atoms: _478  and  _480
REMARK  186  A    between atoms: _480  and  _481
REMARK  187  A    between atoms: _480  and  _483
REMARK  188  A    between atoms: _483  and  _484
REMARK  189  A    between atoms: _484  and  _485
REMARK  190  A    between atoms: _485  and  _486
REMARK  191  A    between atoms: _495  and  _497
REMARK  192  A    between atoms: _497  and  _498
REMARK  193  A    between atoms: _501  and  _503
REMARK  194  A    between atoms: _503  and  _504
REMARK  195  A    between atoms: _507  and  _509
REMARK  196  A    between atoms: _509  and  _510
REMARK  197  A    between atoms: _509  and  _512
REMARK  198  A    between atoms: _512  and  _513
REMARK  199  A    between atoms: _523  and  _525
REMARK  200  A    between atoms: _525  and  _526
REMARK  201  A    between atoms: _525  and  _528
REMARK  202  A    between atoms: _528  and  _529
REMARK  203  A    between atoms: _532  and  _534
REMARK  204  A    between atoms: _534  and  _535
REMARK  205  A    between atoms: _534  and  _537
REMARK  206  A    between atoms: _537  and  _538
REMARK  207  A    between atoms: _538  and  _539
REMARK  208  A    between atoms: _542  and  _544
REMARK  209  A    between atoms: _544  and  _545
REMARK  210  A    between atoms: _544  and  _547
REMARK  211  A    between atoms: _547  and  _548
REMARK  212  A    between atoms: _551  and  _553
REMARK  213  A    between atoms: _553  and  _554
REMARK  214  A    between atoms: _553  and  _556
REMARK  215  A    between atoms: _556  and  _557
REMARK  216  A    between atoms: _557  and  _558
REMARK  217  A    between atoms: _561  and  _563
REMARK  218  A    between atoms: _563  and  _564
REMARK  219  A    between atoms: _563  and  _566
REMARK  220  A    between atoms: _566  and  _567
REMARK  221  A    between atoms: _573  and  _575
REMARK  222  A    between atoms: _575  and  _576
REMARK  223  A    between atoms: _575  and  _578
REMARK  224  A    between atoms: _578  and  _579
REMARK  225  A    between atoms: _579  and  _580
REMARK  226  A    between atoms: _583  and  _585
REMARK  227  A    between atoms: _585  and  _586
REMARK  228  A    between atoms: _585  and  _588
REMARK  229  A    between atoms: _591  and  _593
REMARK  230  A    between atoms: _593  and  _594
REMARK  231  A    between atoms: _593  and  _596
REMARK                            x       y       z     vdW  Elec       q    Type
REMARK                         _______ _______ _______ _____ _____    ______ ____
ROOT
ATOM      1  CA  THR A   1       9.489  20.088  23.860  0.00  0.00    +0.160 C 
ENDROOT
BRANCH   1   2
ATOM      2  N   THR A   1       8.223  20.523  24.454  0.00  0.00    -0.237 NA
ATOM      3  H   THR A   1       7.620  21.196  23.938  0.00  0.00    +0.142 HD
ENDBRANCH   1   2
BRANCH   1   4
ATOM      4  C   THR A   1      10.645  20.549  24.747  0.00  0.00    +0.227 C 
ATOM      5  O   THR A   1      11.592  19.775  25.017  0.00  0.00    -0.287 OA
ENDBRANCH   1   4
BRANCH   1   6
ATOM      6  CB  THR A   1       9.737  20.477  22.366  0.00  0.00    +0.134 C 
ATOM      7  CG2 THR A   1       8.569  20.155  21.491  0.00  0.00    +0.034 C 
BRANCH   6   8
ATOM      8  OG1 THR A   1      10.028  21.873  22.227  0.00  0.00    -0.383 OA
ATOM      9  HG1 THR A   1       9.264  22.404  22.566  0.00  0.00    +0.210 HD
ENDBRANCH   6   8
ENDBRANCH   1   6
TORSDOF 4
REMARK  Name = ../refined-set-2016/4x5z/4x5z_pocket.pdb
REMARK  231 active torsions:
REMARK  status: ('A' for Active; 'I' for Inactive)
REMARK    1  A    between atoms: _1  and  _3
REMARK    2  A    between atoms: _3  and  _4
REMARK    3  A    between atoms: _3  and  _6
REMARK    4  A    between atoms: _6  and  _7
REMARK    5  A    between atoms: _10  and  _12
REMARK    6  A    between atoms: _12  and  _13
REMARK    7  A    between atoms: _12  and  _15
REMARK    8  A    between atoms: _15  and  _16
REMARK    9  A    between atoms: _18  and  _20
REMARK   10  A    between atoms: _20  and  _21
REMARK   11  A    between atoms: _20  and  _23
REMARK   12  A    between atoms: _23  and  _24
REMARK   13  A    between atoms: _26  and  _28
REMARK   14  A    between atoms: _28  and  _29
REMARK   15  A    between atoms: _31  and  _33
REMARK   16  A    between atoms: _33  and  _34
REMARK   17  A    between atoms: _37  and  _39
REMARK   18  A    between atoms: _39  and  _40
REMARK   19  A    between atoms: _39  and  _42
REMARK   20  A    between atoms: _42  and  _43
REMARK   21  A    between atoms: _49  and  _51
REMARK   22  A    between atoms: _51  and  _52
REMARK   23  A    between atoms: _51  and  _54
REMARK   24  A    between atoms: _54  and  _55
REMARK   25  A    between atoms: _58  and  _60
REMARK   26  A    between atoms: _60  and  _61
REMARK   27  A    between atoms: _64  and  _66
REMARK   28  A    between atoms: _66  and  _67
REMARK   29  A    between atoms: _66  and  _69
REMARK   30  A    between atoms: _69  and  _70
REMARK   31  A    between atoms: _73  and  _75
REMARK   32  A    between atoms: _75  and  _76
REMARK   33  A    between atoms: _75  and  _78
REMARK   34  A    between atoms: _78  and  _79
REMARK   35  A    between atoms: _81  and  _83
REMARK   36  A    between atoms: _83  and  _84
REMARK   37  A    between atoms: _83  and  _86
REMARK   38  A    between atoms: _86  and  _87
REMARK   39  A    between atoms: _87  and  _88
REMARK   40  A    between atoms: _91  and  _93
REMARK   41  A    between atoms: _93  and  _94
REMARK   42  A    between atoms: _93  and  _96
REMARK   43  A    between atoms: _96  and  _97
REMARK   44  A    between atoms: _100  and  _102
REMARK   45  A    between atoms: _102  and  _103
REMARK   46  A    between atoms: _102  and  _105
REMARK   47  A    between atoms: _105  and  _106
REMARK   48  A    between atoms: _111  and  _113
REMARK   49  A    between atoms: _113  and  _114
REMARK   50  A    between atoms: _117  and  _119
REMARK   51  A    between atoms: _119  and  _120
REMARK   52  A    between atoms: _119  and  _122
REMARK   53  A    between atoms: _122  and  _123
REMARK   54  A    between atoms: _133  and  _135
REMARK   55  A    between atoms: _135  and  _136
REMARK   56  A    between atoms: _135  and  _138
REMARK   57  A    between atoms: _138  and  _139
REMARK   58  A    between atoms: _142  and  _144
REMARK   59  A    between atoms: _144  and  _145
REMARK   60  A    between atoms: _144  and  _147
REMARK   61  A    between atoms: _147  and  _148
REMARK   62  A    between atoms: _158  and  _160
REMARK   63  A    between atoms: _160  and  _161
REMARK   64  A    between atoms: _160  and  _163
REMARK   65  A    between atoms: _163  and  _164
REMARK   66  A    between atoms: _169  and  _171
REMARK   67  A    between atoms: _171  and  _172
REMARK   68  A    between atoms: _174  and  _176
REMARK   69  A    between atoms: _176  and  _177
REMARK   70  A    between atoms: _176  and  _179
REMARK   71  A    between atoms: _179  and  _180
REMARK   72  A    between atoms: _190  and  _192
REMARK   73  A    between atoms: _192  and  _193
REMARK   74  A    between atoms: _192  and  _195
REMARK   75  A    between atoms: _195  and  _196
REMARK   76  A    between atoms: _199  and  _201
REMARK   77  A    between atoms: _201  and  _202
REMARK   78  A    between atoms: _201  and  _204
REMARK   79  A    between atoms: _204  and  _205
REMARK   80  A    between atoms: _205  and  _206
REMARK   81  A    between atoms: _208  and  _210
REMARK   82  A    between atoms: _210  and  _211
REMARK   83  A    between atoms: _210  and  _213
REMARK   84  A    between atoms: _215  and  _217
REMARK   85  A    between atoms: _217  and  _218
REMARK   86  A    between atoms: _221  and  _223
REMARK   87  A    between atoms: _223  and  _224
REMARK   88  A    between atoms: _223  and  _226
REMARK   89  A    between atoms: _226  and  _227
REMARK   90  A    between atoms: _233  and  _235
REMARK   91  A    between atoms: _235  and  _236
REMARK   92  A    between atoms: _235  and  _238
REMARK   93  A    between atoms: _238  and  _239
REMARK   94  A    between atoms: _239  and  _240
REMARK   95  A    between atoms: _242  and  _244
REMARK   96  A    between atoms: _244  and  _245
REMARK   97  A    between atoms: _244  and  _247
REMARK   98  A    between atoms: _250  and  _252
REMARK   99  A    between atoms: _252  and  _253
REMARK  100  A    between atoms: _252  and  _255
REMARK  101  A    between atoms: _257  and  _259
REMARK  102  A    between atoms: _259  and  _260
REMARK  103  A    between atoms: _263  and  _265
REMARK  104  A    between atoms: _265  and  _266
REMARK  105  A    between atoms: _265  and  _268
REMARK  106  A    between atoms: _268  and  _269
REMARK  107  A    between atoms: _269  and  _270
REMARK  108  A    between atoms: _275  and  _277
REMARK  109  A    between atoms: _277  and  _278
REMARK  110  A    between atoms: _277  and  _280
REMARK  111  A    between atoms: _280  and  _281
REMARK  112  A    between atoms: _286  and  _287
REMARK  113  A    between atoms: _290  and  _291
REMARK  114  A    between atoms: _296  and  _298
REMARK  115  A    between atoms: _298  and  _299
REMARK  116  A    between atoms: _298  and  _301
REMARK  117  A    between atoms: _301  and  _302
REMARK  118  A    between atoms: _302  and  _303
REMARK  119  A    between atoms: _305  and  _307
REMARK  120  A    between atoms: _307  and  _308
REMARK  121  A    between atoms: _311  and  _313
REMARK  122  A    between atoms: _313  and  _314
REMARK  123  A    between atoms: _313  and  _316
REMARK  124  A    between atoms: _316  and  _317
REMARK  125  A    between atoms: _320  and  _322
REMARK  126  A    between atoms: _322  and  _323
REMARK  127  A    between atoms: _325  and  _327
REMARK  128  A    between atoms: _327  and  _328
REMARK  129  A    between atoms: _327  and  _330
REMARK  130  A    between atoms: _330  and  _331
REMARK  131  A    between atoms: _336  and  _338
REMARK  132  A    between atoms: _338  and  _339
REMARK  133  A    between atoms: _338  and  _341
REMARK  134  A    between atoms: _341  and  _342
REMARK  135  A    between atoms: _345  and  _347
REMARK  136  A    between atoms: _347  and  _348
REMARK  137  A    between atoms: _347  and  _350
REMARK  138  A    between atoms: _350  and  _351
REMARK  139  A    between atoms: _356  and  _357
REMARK  140  A    between atoms: _359  and  _361
REMARK  141  A    between atoms: _361  and  _362
REMARK  142  A    between atoms: _361  and  _364
REMARK  143  A    between atoms: _364  and  _365
REMARK  144  A    between atoms: _368  and  _370
REMARK  145  A    between atoms: _370  and  _371
REMARK  146  A    between atoms: _370  and  _373
REMARK  147  A    between atoms: _373  and  _374
REMARK  148  A    between atoms: _379  and  _380
REMARK  149  A    between atoms: _383  and  _384
REMARK  150  A    between atoms: _389  and  _391
REMARK  151  A    between atoms: _391  and  _392
REMARK  152  A    between atoms: _391  and  _394
REMARK  153  A    between atoms: _394  and  _395
REMARK  154  A    between atoms: _400  and  _401
REMARK  155  A    between atoms: _403  and  _405
REMARK  156  A    between atoms: _405  and  _406
REMARK  157  A    between atoms: _405  and  _408
REMARK  158  A    between atoms: _408  and  _409
REMARK  159  A    between atoms: _409  and  _410
REMARK  160  A    between atoms: _412  and  _414
REMARK  161  A    between atoms: _414  and  _415
REMARK  162  A    between atoms: _414  and  _417
REMARK  163  A    between atoms: _417  and  _418
REMARK  164  A    between atoms: _423  and  _424
REMARK  165  A    between atoms: _426  and  _428
REMARK  166  A    between atoms: _428  and  _429
REMARK  167  A    between atoms: _428  and  _431
REMARK  168  A    between atoms: _431  and  _432
REMARK  169  A    between atoms: _435  and  _437
REMARK  170  A    between atoms: _437  and  _438
REMARK  171  A    between atoms: _441  and  _443
REMARK  172  A    between atoms: _443  and  _444
REMARK  173  A    between atoms: _446  and  _448
REMARK  174  A    between atoms: _448  and  _449
REMARK  175  A    between atoms: _448  and  _451
REMARK  176  A    between atoms: _451  and  _452
REMARK  177  A    between atoms: _457  and  _458
REMARK  178  A    between atoms: _460  and  _462
REMARK  179  A    between atoms: _462  and  _463
REMARK  180  A    between atoms: _462  and  _465
REMARK  181  A    between atoms: _465  and  _466
REMARK  182  A    between atoms: _471  and  _473
REMARK  183  A    between atoms: _473  and  _474
REMARK  184  A    between atoms: _473  and  _476
REMARK  185  A    between atoms: _478  and  _480
REMARK  186  A    between atoms: _480  and  _481
REMARK  187  A    between atoms: _480  and  _483
REMARK  188  A    between atoms: _483  and  _484
REMARK  189  A    between atoms: _484  and  _485
REMARK  190  A    between atoms: _485  and  _486
REMARK  191  A    between atoms: _495  and  _497
REMARK  192  A    between atoms: _497  and  _498
REMARK  193  A    between atoms: _501  and  _503
REMARK  194  A    between atoms: _503  and  _504
REMARK  195  A    between atoms: _507  and  _509
REMARK  196  A    between atoms: _509  and  _510
REMARK  197  A    between atoms: _509  and  _512
REMARK  198  A    between atoms: _512  and  _513
REMARK  199  A    between atoms: _523  and  _525
REMARK  200  A    between atoms: _525  and  _526
REMARK  201  A    between atoms: _525  and  _528
REMARK  202  A    between atoms: _528  and  _529
REMARK  203  A    between atoms: _532  and  _534
REMARK  204  A    between atoms: _534  and  _535
REMARK  205  A    between atoms: _534  and  _537
REMARK  206  A    between atoms: _537  and  _538
REMARK  207  A    between atoms: _538  and  _539
REMARK  208  A    between atoms: _542  and  _544
REMARK  209  A    between atoms: _544  and  _545
REMARK  210  A    between atoms: _544  and  _547
REMARK  211  A    between atoms: _547  and  _548
REMARK  212  A    between atoms: _551  and  _553
REMARK  213  A    between atoms: _553  and  _554
REMARK  214  A    between atoms: _553  and  _556
REMARK  215  A    between atoms: _556  and  _557
REMARK  216  A    between atoms: _557  and  _558
REMARK  217  A    between atoms: _561  and  _563
REMARK  218  A    between atoms: _563  and  _564
REMARK  219  A    between atoms: _563  and  _566
REMARK  220  A    between atoms: _566  and  _567
REMARK  221  A    between atoms: _573  and  _575
REMARK  222  A    between atoms: _575  and  _576
REMARK  223  A    between atoms: _575  and  _578
REMARK  224  A    between atoms: _578  and  _579
REMARK  225  A    between atoms: _579  and  _580
REMARK  226  A    between atoms: _583  and  _585
REMARK  227  A    between atoms: _585  and  _586
REMARK  228  A    between atoms: _585  and  _588
REMARK  229  A    between atoms: _591  and  _593
REMARK  230  A    between atoms: _593  and  _594
REMARK  231  A    between atoms: _593  and  _596
REMARK                            x       y       z     vdW  Elec       q    Type
REMARK                         _______ _______ _______ _____ _____    ______ ____
ROOT
ATOM      1  C   GLU A   1      19.313  19.325  15.755  0.00  0.00    +0.238 C 
ATOM      2  N   ILE A   2      19.288  18.920  17.025  0.00  0.00    -0.298 N 
ATOM      3  H   ILE A   2      20.021  18.279  17.389  0.00  0.00    +0.150 HD
ATOM      4  O   GLU A   1      18.458  20.066  15.269  0.00  0.00    -0.274 OA
ENDROOT
BRANCH   1   5
ATOM      5  CA  GLU A   1      20.465  18.834  14.877  0.00  0.00    +0.145 C 
BRANCH   5   6
ATOM      6  N   GLU A   1      21.722  18.798  15.598  0.00  0.00    -0.238 NA
ATOM      7  H   GLU A   1      22.207  17.891  15.752  0.00  0.00    +0.142 HD
ENDBRANCH   5   6
BRANCH   5   8
ATOM      8  CB  GLU A   1      20.107  17.480  14.260  0.00  0.00    +0.038 C 
BRANCH   8   9
ATOM      9  CG  GLU A   1      21.106  17.121  13.157  0.00  0.00    +0.116 C 
BRANCH   9  10
ATOM     10  CD  GLU A   1      21.026  18.036  11.933  0.00  0.00    +0.365 C 
ATOM     11  OE2 GLU A   1      19.915  18.452  11.533  0.00  0.00    -0.246 OA
ATOM     12  OE1 GLU A   1      22.085  18.331  11.372  0.00  0.00    -0.246 OA
ENDBRANCH   9  10
ENDBRANCH   8   9
ENDBRANCH   5   8
ENDBRANCH   1   5
BRANCH   2  13
ATOM     13  CA  ILE A   2      18.203  19.396  17.908  0.00  0.00    +0.137 C 
BRANCH  13  14
ATOM     14  CB  ILE A   2      17.920  18.445  19.103  0.00  0.00    +0.026 C 
ATOM     15  CG2 ILE A   2      18.847  18.712  20.263  0.00  0.00    +0.002 C 
BRANCH  14  16
ATOM     16  CG1 ILE A   2      16.438  18.552  19.513  0.00  0.00    +0.002 C 
ATOM     17  CD1 ILE A   2      15.481  18.037  18.490  0.00  0.00    +0.000 C 
ENDBRANCH  14  16
ENDBRANCH  13  14
BRANCH  13  18
ATOM     18  C   ILE A   2      18.404  20.846  18.352  0.00  0.00    +0.227 C 
ATOM     19  O   ILE A   2      17.410  21.583  18.495  0.00  0.00    -0.286 OA
ENDBRANCH  13  18
ENDBRANCH   2  13
TORSDOF 9
REMARK  Name = ../refined-set-2016/4x5z/4x5z_pocket.pdb
REMARK  231 active torsions:
REMARK  status: ('A' for Active; 'I' for Inactive)
REMARK    1  A    between atoms: _1  and  _3
REMARK    2  A    between atoms: _3  and  _4
REMARK    3  A    between atoms: _3  and  _6
REMARK    4  A    between atoms: _6  and  _7
REMARK    5  A    between atoms: _10  and  _12
REMARK    6  A    between atoms: _12  and  _13
REMARK    7  A    between atoms: _12  and  _15
REMARK    8  A    between atoms: _15  and  _16
REMARK    9  A    between atoms: _18  and  _20
REMARK   10  A    between atoms: _20  and  _21
REMARK   11  A    between atoms: _20  and  _23
REMARK   12  A    between atoms: _23  and  _24
REMARK   13  A    between atoms: _26  and  _28
REMARK   14  A    between atoms: _28  and  _29
REMARK   15  A    between atoms: _31  and  _33
REMARK   16  A    between atoms: _33  and  _34
REMARK   17  A    between atoms: _37  and  _39
REMARK   18  A    between atoms: _39  and  _40
REMARK   19  A    between atoms: _39  and  _42
REMARK   20  A    between atoms: _42  and  _43
REMARK   21  A    between atoms: _49  and  _51
REMARK   22  A    between atoms: _51  and  _52
REMARK   23  A    between atoms: _51  and  _54
REMARK   24  A    between atoms: _54  and  _55
REMARK   25  A    between atoms: _58  and  _60
REMARK   26  A    between atoms: _60  and  _61
REMARK   27  A    between atoms: _64  and  _66
REMARK   28  A    between atoms: _66  and  _67
REMARK   29  A    between atoms: _66  and  _69
REMARK   30  A    between atoms: _69  and  _70
REMARK   31  A    between atoms: _73  and  _75
REMARK   32  A    between atoms: _75  and  _76
REMARK   33  A    between atoms: _75  and  _78
REMARK   34  A    between atoms: _78  and  _79
REMARK   35  A    between atoms: _81  and  _83
REMARK   36  A    between atoms: _83  and  _84
REMARK   37  A    between atoms: _83  and  _86
REMARK   38  A    between atoms: _86  and  _87
REMARK   39  A    between atoms: _87  and  _88
REMARK   40  A    between atoms: _91  and  _93
REMARK   41  A    between atoms: _93  and  _94
REMARK   42  A    between atoms: _93  and  _96
REMARK   43  A    between atoms: _96  and  _97
REMARK   44  A    between atoms: _100  and  _102
REMARK   45  A    between atoms: _102  and  _103
REMARK   46  A    between atoms: _102  and  _105
REMARK   47  A    between atoms: _105  and  _106
REMARK   48  A    between atoms: _111  and  _113
REMARK   49  A    between atoms: _113  and  _114
REMARK   50  A    between atoms: _117  and  _119
REMARK   51  A    between atoms: _119  and  _120
REMARK   52  A    between atoms: _119  and  _122
REMARK   53  A    between atoms: _122  and  _123
REMARK   54  A    between atoms: _133  and  _135
REMARK   55  A    between atoms: _135  and  _136
REMARK   56  A    between atoms: _135  and  _138
REMARK   57  A    between atoms: _138  and  _139
REMARK   58  A    between atoms: _142  and  _144
REMARK   59  A    between atoms: _144  and  _145
REMARK   60  A    between atoms: _144  and  _147
REMARK   61  A    between atoms: _147  and  _148
REMARK   62  A    between atoms: _158  and  _160
REMARK   63  A    between atoms: _160  and  _161
REMARK   64  A    between atoms: _160  and  _163
REMARK   65  A    between atoms: _163  and  _164
REMARK   66  A    between atoms: _169  and  _171
REMARK   67  A    between atoms: _171  and  _172
REMARK   68  A    between atoms: _174  and  _176
REMARK   69  A    between atoms: _176  and  _177
REMARK   70  A    between atoms: _176  and  _179
REMARK   71  A    between atoms: _179  and  _180
REMARK   72  A    between atoms: _190  and  _192
REMARK   73  A    between atoms: _192  and  _193
REMARK   74  A    between atoms: _192  and  _195
REMARK   75  A    between atoms: _195  and  _196
REMARK   76  A    between atoms: _199  and  _201
REMARK   77  A    between atoms: _201  and  _202
REMARK   78  A    between atoms: _201  and  _204
REMARK   79  A    between atoms: _204  and  _205
REMARK   80  A    between atoms: _205  and  _206
REMARK   81  A    between atoms: _208  and  _210
REMARK   82  A    between atoms: _210  and  _211
REMARK   83  A    between atoms: _210  and  _213
REMARK   84  A    between atoms: _215  and  _217
REMARK   85  A    between atoms: _217  and  _218
REMARK   86  A    between atoms: _221  and  _223
REMARK   87  A    between atoms: _223  and  _224
REMARK   88  A    between atoms: _223  and  _226
REMARK   89  A    between atoms: _226  and  _227
REMARK   90  A    between atoms: _233  and  _235
REMARK   91  A    between atoms: _235  and  _236
REMARK   92  A    between atoms: _235  and  _238
REMARK   93  A    between atoms: _238  and  _239
REMARK   94  A    between atoms: _239  and  _240
REMARK   95  A    between atoms: _242  and  _244
REMARK   96  A    between atoms: _244  and  _245
REMARK   97  A    between atoms: _244  and  _247
REMARK   98  A    between atoms: _250  and  _252
REMARK   99  A    between atoms: _252  and  _253
REMARK  100  A    between atoms: _252  and  _255
REMARK  101  A    between atoms: _257  and  _259
REMARK  102  A    between atoms: _259  and  _260
REMARK  103  A    between atoms: _263  and  _265
REMARK  104  A    between atoms: _265  and  _266
REMARK  105  A    between atoms: _265  and  _268
REMARK  106  A    between atoms: _268  and  _269
REMARK  107  A    between atoms: _269  and  _270
REMARK  108  A    between atoms: _275  and  _277
REMARK  109  A    between atoms: _277  and  _278
REMARK  110  A    between atoms: _277  and  _280
REMARK  111  A    between atoms: _280  and  _281
REMARK  112  A    between atoms: _286  and  _287
REMARK  113  A    between atoms: _290  and  _291
REMARK  114  A    between atoms: _296  and  _298
REMARK  115  A    between atoms: _298  and  _299
REMARK  116  A    between atoms: _298  and  _301
REMARK  117  A    between atoms: _301  and  _302
REMARK  118  A    between atoms: _302  and  _303
REMARK  119  A    between atoms: _305  and  _307
REMARK  120  A    between atoms: _307  and  _308
REMARK  121  A    between atoms: _311  and  _313
REMARK  122  A    between atoms: _313  and  _314
REMARK  123  A    between atoms: _313  and  _316
REMARK  124  A    between atoms: _316  and  _317
REMARK  125  A    between atoms: _320  and  _322
REMARK  126  A    between atoms: _322  and  _323
REMARK  127  A    between atoms: _325  and  _327
REMARK  128  A    between atoms: _327  and  _328
REMARK  129  A    between atoms: _327  and  _330
REMARK  130  A    between atoms: _330  and  _331
REMARK  131  A    between atoms: _336  and  _338
REMARK  132  A    between atoms: _338  and  _339
REMARK  133  A    between atoms: _338  and  _341
REMARK  134  A    between atoms: _341  and  _342
REMARK  135  A    between atoms: _345  and  _347
REMARK  136  A    between atoms: _347  and  _348
REMARK  137  A    between atoms: _347  and  _350
REMARK  138  A    between atoms: _350  and  _351
REMARK  139  A    between atoms: _356  and  _357
REMARK  140  A    between atoms: _359  and  _361
REMARK  141  A    between atoms: _361  and  _362
REMARK  142  A    between atoms: _361  and  _364
REMARK  143  A    between atoms: _364  and  _365
REMARK  144  A    between atoms: _368  and  _370
REMARK  145  A    between atoms: _370  and  _371
REMARK  146  A    between atoms: _370  and  _373
REMARK  147  A    between atoms: _373  and  _374
REMARK  148  A    between atoms: _379  and  _380
REMARK  149  A    between atoms: _383  and  _384
REMARK  150  A    between atoms: _389  and  _391
REMARK  151  A    between atoms: _391  and  _392
REMARK  152  A    between atoms: _391  and  _394
REMARK  153  A    between atoms: _394  and  _395
REMARK  154  A    between atoms: _400  and  _401
REMARK  155  A    between atoms: _403  and  _405
REMARK  156  A    between atoms: _405  and  _406
REMARK  157  A    between atoms: _405  and  _408
REMARK  158  A    between atoms: _408  and  _409
REMARK  159  A    between atoms: _409  and  _410
REMARK  160  A    between atoms: _412  and  _414
REMARK  161  A    between atoms: _414  and  _415
REMARK  162  A    between atoms: _414  and  _417
REMARK  163  A    between atoms: _417  and  _418
REMARK  164  A    between atoms: _423  and  _424
REMARK  165  A    between atoms: _426  and  _428
REMARK  166  A    between atoms: _428  and  _429
REMARK  167  A    between atoms: _428  and  _431
REMARK  168  A    between atoms: _431  and  _432
REMARK  169  A    between atoms: _435  and  _437
REMARK  170  A    between atoms: _437  and  _438
REMARK  171  A    between atoms: _441  and  _443
REMARK  172  A    between atoms: _443  and  _444
REMARK  173  A    between atoms: _446  and  _448
REMARK  174  A    between atoms: _448  and  _449
REMARK  175  A    between atoms: _448  and  _451
REMARK  176  A    between atoms: _451  and  _452
REMARK  177  A    between atoms: _457  and  _458
REMARK  178  A    between atoms: _460  and  _462
REMARK  179  A    between atoms: _462  and  _463
REMARK  180  A    between atoms: _462  and  _465
REMARK  181  A    between atoms: _465  and  _466
REMARK  182  A    between atoms: _471  and  _473
REMARK  183  A    between atoms: _473  and  _474
REMARK  184  A    between atoms: _473  and  _476
REMARK  185  A    between atoms: _478  and  _480
REMARK  186  A    between atoms: _480  and  _481
REMARK  187  A    between atoms: _480  and  _483
REMARK  188  A    between atoms: _483  and  _484
REMARK  189  A    between atoms: _484  and  _485
REMARK  190  A    between atoms: _485  and  _486
REMARK  191  A    between atoms: _495  and  _497
REMARK  192  A    between atoms: _497  and  _498
REMARK  193  A    between atoms: _501  and  _503
REMARK  194  A    between atoms: _503  and  _504
REMARK  195  A    between atoms: _507  and  _509
REMARK  196  A    between atoms: _509  and  _510
REMARK  197  A    between atoms: _509  and  _512
REMARK  198  A    between atoms: _512  and  _513
REMARK  199  A    between atoms: _523  and  _525
REMARK  200  A    between atoms: _525  and  _526
REMARK  201  A    between atoms: _525  and  _528
REMARK  202  A    between atoms: _528  and  _529
REMARK  203  A    between atoms: _532  and  _534
REMARK  204  A    between atoms: _534  and  _535
REMARK  205  A    between atoms: _534  and  _537
REMARK  206  A    between atoms: _537  and  _538
REMARK  207  A    between atoms: _538  and  _539
REMARK  208  A    between atoms: _542  and  _544
REMARK  209  A    between atoms: _544  and  _545
REMARK  210  A    between atoms: _544  and  _547
REMARK  211  A    between atoms: _547  and  _548
REMARK  212  A    between atoms: _551  and  _553
REMARK  213  A    between atoms: _553  and  _554
REMARK  214  A    between atoms: _553  and  _556
REMARK  215  A    between atoms: _556  and  _557
REMARK  216  A    between atoms: _557  and  _558
REMARK  217  A    between atoms: _561  and  _563
REMARK  218  A    between atoms: _563  and  _564
REMARK  219  A    between atoms: _563  and  _566
REMARK  220  A    between atoms: _566  and  _567
REMARK  221  A    between atoms: _573  and  _575
REMARK  222  A    between atoms: _575  and  _576
REMARK  223  A    between atoms: _575  and  _578
REMARK  224  A    between atoms: _578  and  _579
REMARK  225  A    between atoms: _579  and  _580
REMARK  226  A    between atoms: _583  and  _585
REMARK  227  A    between atoms: _585  and  _586
REMARK  228  A    between atoms: _585  and  _588
REMARK  229  A    between atoms: _591  and  _593
REMARK  230  A    between atoms: _593  and  _594
REMARK  231  A    between atoms: _593  and  _596
REMARK                            x       y       z     vdW  Elec       q    Type
REMARK                         _______ _______ _______ _____ _____    ______ ____
ROOT
ATOM      1  C   GLU A   1      15.022  23.903  16.663  0.00  0.00    +0.238 C 
ATOM      2  N   PHE A   2      15.607  23.896  17.855  0.00  0.00    -0.298 N 
ATOM      3  H   PHE A   2      16.347  23.194  18.060  0.00  0.00    +0.150 HD
ATOM      4  O   GLU A   1      14.094  24.675  16.369  0.00  0.00    -0.274 OA
ENDROOT
BRANCH   1   5
ATOM      5  CA  GLU A   1      15.541  22.896  15.608  0.00  0.00    +0.145 C 
BRANCH   5   6
ATOM      6  N   GLU A   1      16.983  22.851  15.527  0.00  0.00    -0.238 NA
ATOM      7  H   GLU A   1      17.490  21.989  15.812  0.00  0.00    +0.142 HD
ENDBRANCH   5   6
BRANCH   5   8
ATOM      8  CB  GLU A   1      14.989  21.517  15.845  0.00  0.00    +0.038 C 
BRANCH   8   9
ATOM      9  CG  GLU A   1      13.500  21.435  15.530  0.00  0.00    +0.116 C 
BRANCH   9  10
ATOM     10  CD  GLU A   1      13.114  21.827  14.096  0.00  0.00    +0.365 C 
ATOM     11  OE2 GLU A   1      12.072  22.533  13.928  0.00  0.00    -0.246 OA
ATOM     12  OE1 GLU A   1      13.825  21.434  13.150  0.00  0.00    -0.246 OA
ENDBRANCH   9  10
ENDBRANCH   8   9
ENDBRANCH   5   8
ENDBRANCH   1   5
BRANCH   2  13
ATOM     13  CA  PHE A   2      15.229  24.850  18.869  0.00  0.00    +0.141 C 
BRANCH  13  14
ATOM     14  C   PHE A   2      15.560  26.256  18.391  0.00  0.00    +0.227 C 
ATOM     15  O   PHE A   2      14.752  27.164  18.575  0.00  0.00    -0.286 OA
ENDBRANCH  13  14
BRANCH  13  16
ATOM     16  CB  PHE A   2      15.851  24.575  20.224  0.00  0.00    +0.054 C 
BRANCH  16  17
ATOM     17  CG  PHE A   2      15.108  23.530  21.033  0.00  0.00    -0.020 A 
ATOM     18  CD2 PHE A   2      13.884  23.815  21.593  0.00  0.00    -0.004 A 
ATOM     19  CE2 PHE A   2      13.193  22.866  22.312  0.00  0.00    -0.000 A 
ATOM     20  CZ  PHE A   2      13.725  21.614  22.472  0.00  0.00    -0.000 A 
ATOM     21  CE1 PHE A   2      14.915  21.306  21.889  0.00  0.00    -0.000 A 
ATOM     22  CD1 PHE A   2      15.608  22.266  21.171  0.00  0.00    -0.004 A 
ENDBRANCH  16  17
ENDBRANCH  13  16
ENDBRANCH   2  13
TORSDOF 9
REMARK  Name = ../refined-set-2016/4x5z/4x5z_pocket.pdb
REMARK  231 active torsions:
REMARK  status: ('A' for Active; 'I' for Inactive)
REMARK    1  A    between atoms: _1  and  _3
REMARK    2  A    between atoms: _3  and  _4
REMARK    3  A    between atoms: _3  and  _6
REMARK    4  A    between atoms: _6  and  _7
REMARK    5  A    between atoms: _10  and  _12
REMARK    6  A    between atoms: _12  and  _13
REMARK    7  A    between atoms: _12  and  _15
REMARK    8  A    between atoms: _15  and  _16
REMARK    9  A    between atoms: _18  and  _20
REMARK   10  A    between atoms: _20  and  _21
REMARK   11  A    between atoms: _20  and  _23
REMARK   12  A    between atoms: _23  and  _24
REMARK   13  A    between atoms: _26  and  _28
REMARK   14  A    between atoms: _28  and  _29
REMARK   15  A    between atoms: _31  and  _33
REMARK   16  A    between atoms: _33  and  _34
REMARK   17  A    between atoms: _37  and  _39
REMARK   18  A    between atoms: _39  and  _40
REMARK   19  A    between atoms: _39  and  _42
REMARK   20  A    between atoms: _42  and  _43
REMARK   21  A    between atoms: _49  and  _51
REMARK   22  A    between atoms: _51  and  _52
REMARK   23  A    between atoms: _51  and  _54
REMARK   24  A    between atoms: _54  and  _55
REMARK   25  A    between atoms: _58  and  _60
REMARK   26  A    between atoms: _60  and  _61
REMARK   27  A    between atoms: _64  and  _66
REMARK   28  A    between atoms: _66  and  _67
REMARK   29  A    between atoms: _66  and  _69
REMARK   30  A    between atoms: _69  and  _70
REMARK   31  A    between atoms: _73  and  _75
REMARK   32  A    between atoms: _75  and  _76
REMARK   33  A    between atoms: _75  and  _78
REMARK   34  A    between atoms: _78  and  _79
REMARK   35  A    between atoms: _81  and  _83
REMARK   36  A    between atoms: _83  and  _84
REMARK   37  A    between atoms: _83  and  _86
REMARK   38  A    between atoms: _86  and  _87
REMARK   39  A    between atoms: _87  and  _88
REMARK   40  A    between atoms: _91  and  _93
REMARK   41  A    between atoms: _93  and  _94
REMARK   42  A    between atoms: _93  and  _96
REMARK   43  A    between atoms: _96  and  _97
REMARK   44  A    between atoms: _100  and  _102
REMARK   45  A    between atoms: _102  and  _103
REMARK   46  A    between atoms: _102  and  _105
REMARK   47  A    between atoms: _105  and  _106
REMARK   48  A    between atoms: _111  and  _113
REMARK   49  A    between atoms: _113  and  _114
REMARK   50  A    between atoms: _117  and  _119
REMARK   51  A    between atoms: _119  and  _120
REMARK   52  A    between atoms: _119  and  _122
REMARK   53  A    between atoms: _122  and  _123
REMARK   54  A    between atoms: _133  and  _135
REMARK   55  A    between atoms: _135  and  _136
REMARK   56  A    between atoms: _135  and  _138
REMARK   57  A    between atoms: _138  and  _139
REMARK   58  A    between atoms: _142  and  _144
REMARK   59  A    between atoms: _144  and  _145
REMARK   60  A    between atoms: _144  and  _147
REMARK   61  A    between atoms: _147  and  _148
REMARK   62  A    between atoms: _158  and  _160
REMARK   63  A    between atoms: _160  and  _161
REMARK   64  A    between atoms: _160  and  _163
REMARK   65  A    between atoms: _163  and  _164
REMARK   66  A    between atoms: _169  and  _171
REMARK   67  A    between atoms: _171  and  _172
REMARK   68  A    between atoms: _174  and  _176
REMARK   69  A    between atoms: _176  and  _177
REMARK   70  A    between atoms: _176  and  _179
REMARK   71  A    between atoms: _179  and  _180
REMARK   72  A    between atoms: _190  and  _192
REMARK   73  A    between atoms: _192  and  _193
REMARK   74  A    between atoms: _192  and  _195
REMARK   75  A    between atoms: _195  and  _196
REMARK   76  A    between atoms: _199  and  _201
REMARK   77  A    between atoms: _201  and  _202
REMARK   78  A    between atoms: _201  and  _204
REMARK   79  A    between atoms: _204  and  _205
REMARK   80  A    between atoms: _205  and  _206
REMARK   81  A    between atoms: _208  and  _210
REMARK   82  A    between atoms: _210  and  _211
REMARK   83  A    between atoms: _210  and  _213
REMARK   84  A    between atoms: _215  and  _217
REMARK   85  A    between atoms: _217  and  _218
REMARK   86  A    between atoms: _221  and  _223
REMARK   87  A    between atoms: _223  and  _224
REMARK   88  A    between atoms: _223  and  _226
REMARK   89  A    between atoms: _226  and  _227
REMARK   90  A    between atoms: _233  and  _235
REMARK   91  A    between atoms: _235  and  _236
REMARK   92  A    between atoms: _235  and  _238
REMARK   93  A    between atoms: _238  and  _239
REMARK   94  A    between atoms: _239  and  _240
REMARK   95  A    between atoms: _242  and  _244
REMARK   96  A    between atoms: _244  and  _245
REMARK   97  A    between atoms: _244  and  _247
REMARK   98  A    between atoms: _250  and  _252
REMARK   99  A    between atoms: _252  and  _253
REMARK  100  A    between atoms: _252  and  _255
REMARK  101  A    between atoms: _257  and  _259
REMARK  102  A    between atoms: _259  and  _260
REMARK  103  A    between atoms: _263  and  _265
REMARK  104  A    between atoms: _265  and  _266
REMARK  105  A    between atoms: _265  and  _268
REMARK  106  A    between atoms: _268  and  _269
REMARK  107  A    between atoms: _269  and  _270
REMARK  108  A    between atoms: _275  and  _277
REMARK  109  A    between atoms: _277  and  _278
REMARK  110  A    between atoms: _277  and  _280
REMARK  111  A    between atoms: _280  and  _281
REMARK  112  A    between atoms: _286  and  _287
REMARK  113  A    between atoms: _290  and  _291
REMARK  114  A    between atoms: _296  and  _298
REMARK  115  A    between atoms: _298  and  _299
REMARK  116  A    between atoms: _298  and  _301
REMARK  117  A    between atoms: _301  and  _302
REMARK  118  A    between atoms: _302  and  _303
REMARK  119  A    between atoms: _305  and  _307
REMARK  120  A    between atoms: _307  and  _308
REMARK  121  A    between atoms: _311  and  _313
REMARK  122  A    between atoms: _313  and  _314
REMARK  123  A    between atoms: _313  and  _316
REMARK  124  A    between atoms: _316  and  _317
REMARK  125  A    between atoms: _320  and  _322
REMARK  126  A    between atoms: _322  and  _323
REMARK  127  A    between atoms: _325  and  _327
REMARK  128  A    between atoms: _327  and  _328
REMARK  129  A    between atoms: _327  and  _330
REMARK  130  A    between atoms: _330  and  _331
REMARK  131  A    between atoms: _336  and  _338
REMARK  132  A    between atoms: _338  and  _339
REMARK  133  A    between atoms: _338  and  _341
REMARK  134  A    between atoms: _341  and  _342
REMARK  135  A    between atoms: _345  and  _347
REMARK  136  A    between atoms: _347  and  _348
REMARK  137  A    between atoms: _347  and  _350
REMARK  138  A    between atoms: _350  and  _351
REMARK  139  A    between atoms: _356  and  _357
REMARK  140  A    between atoms: _359  and  _361
REMARK  141  A    between atoms: _361  and  _362
REMARK  142  A    between atoms: _361  and  _364
REMARK  143  A    between atoms: _364  and  _365
REMARK  144  A    between atoms: _368  and  _370
REMARK  145  A    between atoms: _370  and  _371
REMARK  146  A    between atoms: _370  and  _373
REMARK  147  A    between atoms: _373  and  _374
REMARK  148  A    between atoms: _379  and  _380
REMARK  149  A    between atoms: _383  and  _384
REMARK  150  A    between atoms: _389  and  _391
REMARK  151  A    between atoms: _391  and  _392
REMARK  152  A    between atoms: _391  and  _394
REMARK  153  A    between atoms: _394  and  _395
REMARK  154  A    between atoms: _400  and  _401
REMARK  155  A    between atoms: _403  and  _405
REMARK  156  A    between atoms: _405  and  _406
REMARK  157  A    between atoms: _405  and  _408
REMARK  158  A    between atoms: _408  and  _409
REMARK  159  A    between atoms: _409  and  _410
REMARK  160  A    between atoms: _412  and  _414
REMARK  161  A    between atoms: _414  and  _415
REMARK  162  A    between atoms: _414  and  _417
REMARK  163  A    between atoms: _417  and  _418
REMARK  164  A    between atoms: _423  and  _424
REMARK  165  A    between atoms: _426  and  _428
REMARK  166  A    between atoms: _428  and  _429
REMARK  167  A    between atoms: _428  and  _431
REMARK  168  A    between atoms: _431  and  _432
REMARK  169  A    between atoms: _435  and  _437
REMARK  170  A    between atoms: _437  and  _438
REMARK  171  A    between atoms: _441  and  _443
REMARK  172  A    between atoms: _443  and  _444
REMARK  173  A    between atoms: _446  and  _448
REMARK  174  A    between atoms: _448  and  _449
REMARK  175  A    between atoms: _448  and  _451
REMARK  176  A    between atoms: _451  and  _452
REMARK  177  A    between atoms: _457  and  _458
REMARK  178  A    between atoms: _460  and  _462
REMARK  179  A    between atoms: _462  and  _463
REMARK  180  A    between atoms: _462  and  _465
REMARK  181  A    between atoms: _465  and  _466
REMARK  182  A    between atoms: _471  and  _473
REMARK  183  A    between atoms: _473  and  _474
REMARK  184  A    between atoms: _473  and  _476
REMARK  185  A    between atoms: _478  and  _480
REMARK  186  A    between atoms: _480  and  _481
REMARK  187  A    between atoms: _480  and  _483
REMARK  188  A    between atoms: _483  and  _484
REMARK  189  A    between atoms: _484  and  _485
REMARK  190  A    between atoms: _485  and  _486
REMARK  191  A    between atoms: _495  and  _497
REMARK  192  A    between atoms: _497  and  _498
REMARK  193  A    between atoms: _501  and  _503
REMARK  194  A    between atoms: _503  and  _504
REMARK  195  A    between atoms: _507  and  _509
REMARK  196  A    between atoms: _509  and  _510
REMARK  197  A    between atoms: _509  and  _512
REMARK  198  A    between atoms: _512  and  _513
REMARK  199  A    between atoms: _523  and  _525
REMARK  200  A    between atoms: _525  and  _526
REMARK  201  A    between atoms: _525  and  _528
REMARK  202  A    between atoms: _528  and  _529
REMARK  203  A    between atoms: _532  and  _534
REMARK  204  A    between atoms: _534  and  _535
REMARK  205  A    between atoms: _534  and  _537
REMARK  206  A    between atoms: _537  and  _538
REMARK  207  A    between atoms: _538  and  _539
REMARK  208  A    between atoms: _542  and  _544
REMARK  209  A    between atoms: _544  and  _545
REMARK  210  A    between atoms: _544  and  _547
REMARK  211  A    between atoms: _547  and  _548
REMARK  212  A    between atoms: _551  and  _553
REMARK  213  A    between atoms: _553  and  _554
REMARK  214  A    between atoms: _553  and  _556
REMARK  215  A    between atoms: _556  and  _557
REMARK  216  A    between atoms: _557  and  _558
REMARK  217  A    between atoms: _561  and  _563
REMARK  218  A    between atoms: _563  and  _564
REMARK  219  A    between atoms: _563  and  _566
REMARK  220  A    between atoms: _566  and  _567
REMARK  221  A    between atoms: _573  and  _575
REMARK  222  A    between atoms: _575  and  _576
REMARK  223  A    between atoms: _575  and  _578
REMARK  224  A    between atoms: _578  and  _579
REMARK  225  A    between atoms: _579  and  _580
REMARK  226  A    between atoms: _583  and  _585
REMARK  227  A    between atoms: _585  and  _586
REMARK  228  A    between atoms: _585  and  _588
REMARK  229  A    between atoms: _591  and  _593
REMARK  230  A    between atoms: _593  and  _594
REMARK  231  A    between atoms: _593  and  _596
REMARK                            x       y       z     vdW  Elec       q    Type
REMARK                         _______ _______ _______ _____ _____    ______ ____
ROOT
ATOM      1  C   GLU A   1      13.315  28.158  14.880  0.00  0.00    +0.238 C 
ATOM      2  N   VAL A   2      12.907  27.403  15.894  0.00  0.00    -0.298 N 
ATOM      3  H   VAL A   2      13.517  26.633  16.235  0.00  0.00    +0.150 HD
ATOM      4  O   GLU A   1      12.647  29.063  14.444  0.00  0.00    -0.274 OA
ENDROOT
BRANCH   1   5
ATOM      5  CA  GLU A   1      14.690  27.868  14.234  0.00  0.00    +0.145 C 
BRANCH   5   6
ATOM      6  N   GLU A   1      15.657  27.466  15.248  0.00  0.00    -0.238 NA
ATOM      7  H   GLU A   1      16.064  26.510  15.201  0.00  0.00    +0.142 HD
ENDBRANCH   5   6
BRANCH   5   8
ATOM      8  CB  GLU A   1      14.546  26.787  13.154  0.00  0.00    +0.038 C 
BRANCH   8   9
ATOM      9  CG  GLU A   1      13.687  27.179  11.950  0.00  0.00    +0.116 C 
BRANCH   9  10
ATOM     10  CD  GLU A   1      13.249  25.987  11.082  0.00  0.00    +0.365 C 
ATOM     11  OE2 GLU A   1      14.070  25.078  10.874  0.00  0.00    -0.246 OA
ATOM     12  OE1 GLU A   1      12.085  25.951  10.609  0.00  0.00    -0.246 OA
ENDBRANCH   9  10
ENDBRANCH   8   9
ENDBRANCH   5   8
ENDBRANCH   1   5
BRANCH   2  13
ATOM     13  CA  VAL A   2      11.621  27.635  16.537  0.00  0.00    +0.137 C 
BRANCH  13  14
ATOM     14  CB  VAL A   2      11.219  26.504  17.482  0.00  0.00    +0.026 C 
ATOM     15  CG2 VAL A   2       9.982  26.899  18.298  0.00  0.00    +0.002 C 
ATOM     16  CG1 VAL A   2      10.954  25.230  16.683  0.00  0.00    +0.002 C 
ENDBRANCH  13  14
BRANCH  13  17
ATOM     17  C   VAL A   2      11.647  28.940  17.259  0.00  0.00    +0.227 C 
ATOM     18  O   VAL A   2      10.769  29.767  17.091  0.00  0.00    -0.286 OA
ENDBRANCH  13  17
ENDBRANCH   2  13
TORSDOF 8
REMARK  Name = ../refined-set-2016/4x5z/4x5z_pocket.pdb
REMARK  231 active torsions:
REMARK  status: ('A' for Active; 'I' for Inactive)
REMARK    1  A    between atoms: _1  and  _3
REMARK    2  A    between atoms: _3  and  _4
REMARK    3  A    between atoms: _3  and  _6
REMARK    4  A    between atoms: _6  and  _7
REMARK    5  A    between atoms: _10  and  _12
REMARK    6  A    between atoms: _12  and  _13
REMARK    7  A    between atoms: _12  and  _15
REMARK    8  A    between atoms: _15  and  _16
REMARK    9  A    between atoms: _18  and  _20
REMARK   10  A    between atoms: _20  and  _21
REMARK   11  A    between atoms: _20  and  _23
REMARK   12  A    between atoms: _23  and  _24
REMARK   13  A    between atoms: _26  and  _28
REMARK   14  A    between atoms: _28  and  _29
REMARK   15  A    between atoms: _31  and  _33
REMARK   16  A    between atoms: _33  and  _34
REMARK   17  A    between atoms: _37  and  _39
REMARK   18  A    between atoms: _39  and  _40
REMARK   19  A    between atoms: _39  and  _42
REMARK   20  A    between atoms: _42  and  _43
REMARK   21  A    between atoms: _49  and  _51
REMARK   22  A    between atoms: _51  and  _52
REMARK   23  A    between atoms: _51  and  _54
REMARK   24  A    between atoms: _54  and  _55
REMARK   25  A    between atoms: _58  and  _60
REMARK   26  A    between atoms: _60  and  _61
REMARK   27  A    between atoms: _64  and  _66
REMARK   28  A    between atoms: _66  and  _67
REMARK   29  A    between atoms: _66  and  _69
REMARK   30  A    between atoms: _69  and  _70
REMARK   31  A    between atoms: _73  and  _75
REMARK   32  A    between atoms: _75  and  _76
REMARK   33  A    between atoms: _75  and  _78
REMARK   34  A    between atoms: _78  and  _79
REMARK   35  A    between atoms: _81  and  _83
REMARK   36  A    between atoms: _83  and  _84
REMARK   37  A    between atoms: _83  and  _86
REMARK   38  A    between atoms: _86  and  _87
REMARK   39  A    between atoms: _87  and  _88
REMARK   40  A    between atoms: _91  and  _93
REMARK   41  A    between atoms: _93  and  _94
REMARK   42  A    between atoms: _93  and  _96
REMARK   43  A    between atoms: _96  and  _97
REMARK   44  A    between atoms: _100  and  _102
REMARK   45  A    between atoms: _102  and  _103
REMARK   46  A    between atoms: _102  and  _105
REMARK   47  A    between atoms: _105  and  _106
REMARK   48  A    between atoms: _111  and  _113
REMARK   49  A    between atoms: _113  and  _114
REMARK   50  A    between atoms: _117  and  _119
REMARK   51  A    between atoms: _119  and  _120
REMARK   52  A    between atoms: _119  and  _122
REMARK   53  A    between atoms: _122  and  _123
REMARK   54  A    between atoms: _133  and  _135
REMARK   55  A    between atoms: _135  and  _136
REMARK   56  A    between atoms: _135  and  _138
REMARK   57  A    between atoms: _138  and  _139
REMARK   58  A    between atoms: _142  and  _144
REMARK   59  A    between atoms: _144  and  _145
REMARK   60  A    between atoms: _144  and  _147
REMARK   61  A    between atoms: _147  and  _148
REMARK   62  A    between atoms: _158  and  _160
REMARK   63  A    between atoms: _160  and  _161
REMARK   64  A    between atoms: _160  and  _163
REMARK   65  A    between atoms: _163  and  _164
REMARK   66  A    between atoms: _169  and  _171
REMARK   67  A    between atoms: _171  and  _172
REMARK   68  A    between atoms: _174  and  _176
REMARK   69  A    between atoms: _176  and  _177
REMARK   70  A    between atoms: _176  and  _179
REMARK   71  A    between atoms: _179  and  _180
REMARK   72  A    between atoms: _190  and  _192
REMARK   73  A    between atoms: _192  and  _193
REMARK   74  A    between atoms: _192  and  _195
REMARK   75  A    between atoms: _195  and  _196
REMARK   76  A    between atoms: _199  and  _201
REMARK   77  A    between atoms: _201  and  _202
REMARK   78  A    between atoms: _201  and  _204
REMARK   79  A    between atoms: _204  and  _205
REMARK   80  A    between atoms: _205  and  _206
REMARK   81  A    between atoms: _208  and  _210
REMARK   82  A    between atoms: _210  and  _211
REMARK   83  A    between atoms: _210  and  _213
REMARK   84  A    between atoms: _215  and  _217
REMARK   85  A    between atoms: _217  and  _218
REMARK   86  A    between atoms: _221  and  _223
REMARK   87  A    between atoms: _223  and  _224
REMARK   88  A    between atoms: _223  and  _226
REMARK   89  A    between atoms: _226  and  _227
REMARK   90  A    between atoms: _233  and  _235
REMARK   91  A    between atoms: _235  and  _236
REMARK   92  A    between atoms: _235  and  _238
REMARK   93  A    between atoms: _238  and  _239
REMARK   94  A    between atoms: _239  and  _240
REMARK   95  A    between atoms: _242  and  _244
REMARK   96  A    between atoms: _244  and  _245
REMARK   97  A    between atoms: _244  and  _247
REMARK   98  A    between atoms: _250  and  _252
REMARK   99  A    between atoms: _252  and  _253
REMARK  100  A    between atoms: _252  and  _255
REMARK  101  A    between atoms: _257  and  _259
REMARK  102  A    between atoms: _259  and  _260
REMARK  103  A    between atoms: _263  and  _265
REMARK  104  A    between atoms: _265  and  _266
REMARK  105  A    between atoms: _265  and  _268
REMARK  106  A    between atoms: _268  and  _269
REMARK  107  A    between atoms: _269  and  _270
REMARK  108  A    between atoms: _275  and  _277
REMARK  109  A    between atoms: _277  and  _278
REMARK  110  A    between atoms: _277  and  _280
REMARK  111  A    between atoms: _280  and  _281
REMARK  112  A    between atoms: _286  and  _287
REMARK  113  A    between atoms: _290  and  _291
REMARK  114  A    between atoms: _296  and  _298
REMARK  115  A    between atoms: _298  and  _299
REMARK  116  A    between atoms: _298  and  _301
REMARK  117  A    between atoms: _301  and  _302
REMARK  118  A    between atoms: _302  and  _303
REMARK  119  A    between atoms: _305  and  _307
REMARK  120  A    between atoms: _307  and  _308
REMARK  121  A    between atoms: _311  and  _313
REMARK  122  A    between atoms: _313  and  _314
REMARK  123  A    between atoms: _313  and  _316
REMARK  124  A    between atoms: _316  and  _317
REMARK  125  A    between atoms: _320  and  _322
REMARK  126  A    between atoms: _322  and  _323
REMARK  127  A    between atoms: _325  and  _327
REMARK  128  A    between atoms: _327  and  _328
REMARK  129  A    between atoms: _327  and  _330
REMARK  130  A    between atoms: _330  and  _331
REMARK  131  A    between atoms: _336  and  _338
REMARK  132  A    between atoms: _338  and  _339
REMARK  133  A    between atoms: _338  and  _341
REMARK  134  A    between atoms: _341  and  _342
REMARK  135  A    between atoms: _345  and  _347
REMARK  136  A    between atoms: _347  and  _348
REMARK  137  A    between atoms: _347  and  _350
REMARK  138  A    between atoms: _350  and  _351
REMARK  139  A    between atoms: _356  and  _357
REMARK  140  A    between atoms: _359  and  _361
REMARK  141  A    between atoms: _361  and  _362
REMARK  142  A    between atoms: _361  and  _364
REMARK  143  A    between atoms: _364  and  _365
REMARK  144  A    between atoms: _368  and  _370
REMARK  145  A    between atoms: _370  and  _371
REMARK  146  A    between atoms: _370  and  _373
REMARK  147  A    between atoms: _373  and  _374
REMARK  148  A    between atoms: _379  and  _380
REMARK  149  A    between atoms: _383  and  _384
REMARK  150  A    between atoms: _389  and  _391
REMARK  151  A    between atoms: _391  and  _392
REMARK  152  A    between atoms: _391  and  _394
REMARK  153  A    between atoms: _394  and  _395
REMARK  154  A    between atoms: _400  and  _401
REMARK  155  A    between atoms: _403  and  _405
REMARK  156  A    between atoms: _405  and  _406
REMARK  157  A    between atoms: _405  and  _408
REMARK  158  A    between atoms: _408  and  _409
REMARK  159  A    between atoms: _409  and  _410
REMARK  160  A    between atoms: _412  and  _414
REMARK  161  A    between atoms: _414  and  _415
REMARK  162  A    between atoms: _414  and  _417
REMARK  163  A    between atoms: _417  and  _418
REMARK  164  A    between atoms: _423  and  _424
REMARK  165  A    between atoms: _426  and  _428
REMARK  166  A    between atoms: _428  and  _429
REMARK  167  A    between atoms: _428  and  _431
REMARK  168  A    between atoms: _431  and  _432
REMARK  169  A    between atoms: _435  and  _437
REMARK  170  A    between atoms: _437  and  _438
REMARK  171  A    between atoms: _441  and  _443
REMARK  172  A    between atoms: _443  and  _444
REMARK  173  A    between atoms: _446  and  _448
REMARK  174  A    between atoms: _448  and  _449
REMARK  175  A    between atoms: _448  and  _451
REMARK  176  A    between atoms: _451  and  _452
REMARK  177  A    between atoms: _457  and  _458
REMARK  178  A    between atoms: _460  and  _462
REMARK  179  A    between atoms: _462  and  _463
REMARK  180  A    between atoms: _462  and  _465
REMARK  181  A    between atoms: _465  and  _466
REMARK  182  A    between atoms: _471  and  _473
REMARK  183  A    between atoms: _473  and  _474
REMARK  184  A    between atoms: _473  and  _476
REMARK  185  A    between atoms: _478  and  _480
REMARK  186  A    between atoms: _480  and  _481
REMARK  187  A    between atoms: _480  and  _483
REMARK  188  A    between atoms: _483  and  _484
REMARK  189  A    between atoms: _484  and  _485
REMARK  190  A    between atoms: _485  and  _486
REMARK  191  A    between atoms: _495  and  _497
REMARK  192  A    between atoms: _497  and  _498
REMARK  193  A    between atoms: _501  and  _503
REMARK  194  A    between atoms: _503  and  _504
REMARK  195  A    between atoms: _507  and  _509
REMARK  196  A    between atoms: _509  and  _510
REMARK  197  A    between atoms: _509  and  _512
REMARK  198  A    between atoms: _512  and  _513
REMARK  199  A    between atoms: _523  and  _525
REMARK  200  A    between atoms: _525  and  _526
REMARK  201  A    between atoms: _525  and  _528
REMARK  202  A    between atoms: _528  and  _529
REMARK  203  A    between atoms: _532  and  _534
REMARK  204  A    between atoms: _534  and  _535
REMARK  205  A    between atoms: _534  and  _537
REMARK  206  A    between atoms: _537  and  _538
REMARK  207  A    between atoms: _538  and  _539
REMARK  208  A    between atoms: _542  and  _544
REMARK  209  A    between atoms: _544  and  _545
REMARK  210  A    between atoms: _544  and  _547
REMARK  211  A    between atoms: _547  and  _548
REMARK  212  A    between atoms: _551  and  _553
REMARK  213  A    between atoms: _553  and  _554
REMARK  214  A    between atoms: _553  and  _556
REMARK  215  A    between atoms: _556  and  _557
REMARK  216  A    between atoms: _557  and  _558
REMARK  217  A    between atoms: _561  and  _563
REMARK  218  A    between atoms: _563  and  _564
REMARK  219  A    between atoms: _563  and  _566
REMARK  220  A    between atoms: _566  and  _567
REMARK  221  A    between atoms: _573  and  _575
REMARK  222  A    between atoms: _575  and  _576
REMARK  223  A    between atoms: _575  and  _578
REMARK  224  A    between atoms: _578  and  _579
REMARK  225  A    between atoms: _579  and  _580
REMARK  226  A    between atoms: _583  and  _585
REMARK  227  A    between atoms: _585  and  _586
REMARK  228  A    between atoms: _585  and  _588
REMARK  229  A    between atoms: _591  and  _593
REMARK  230  A    between atoms: _593  and  _594
REMARK  231  A    between atoms: _593  and  _596
REMARK                            x       y       z     vdW  Elec       q    Type
REMARK                         _______ _______ _______ _____ _____    ______ ____
ROOT
ATOM      1  CA  VAL A   1       8.981  30.296  13.638  0.00  0.00    +0.133 C 
ENDROOT
BRANCH   1   2
ATOM      2  CB  VAL A   1       8.860  28.779  13.861  0.00  0.00    +0.023 C 
ATOM      3  CG2 VAL A   1       7.417  28.297  13.715  0.00  0.00    +0.002 C 
ATOM      4  CG1 VAL A   1       9.724  28.037  12.850  0.00  0.00    +0.002 C 
ENDBRANCH   1   2
BRANCH   1   5
ATOM      5  N   VAL A   1      10.384  30.716  13.737  0.00  0.00    -0.239 NA
ATOM      6  H   VAL A   1      11.089  30.092  14.180  0.00  0.00    +0.142 HD
ENDBRANCH   1   5
BRANCH   1   7
ATOM      7  C   VAL A   1       8.094  31.082  14.581  0.00  0.00    +0.224 C 
ATOM      8  O   VAL A   1       7.060  31.594  14.182  0.00  0.00    -0.287 OA
ENDBRANCH   1   7
TORSDOF 3
REMARK  Name = ../refined-set-2016/4x5z/4x5z_pocket.pdb
REMARK  231 active torsions:
REMARK  status: ('A' for Active; 'I' for Inactive)
REMARK    1  A    between atoms: _1  and  _3
REMARK    2  A    between atoms: _3  and  _4
REMARK    3  A    between atoms: _3  and  _6
REMARK    4  A    between atoms: _6  and  _7
REMARK    5  A    between atoms: _10  and  _12
REMARK    6  A    between atoms: _12  and  _13
REMARK    7  A    between atoms: _12  and  _15
REMARK    8  A    between atoms: _15  and  _16
REMARK    9  A    between atoms: _18  and  _20
REMARK   10  A    between atoms: _20  and  _21
REMARK   11  A    between atoms: _20  and  _23
REMARK   12  A    between atoms: _23  and  _24
REMARK   13  A    between atoms: _26  and  _28
REMARK   14  A    between atoms: _28  and  _29
REMARK   15  A    between atoms: _31  and  _33
REMARK   16  A    between atoms: _33  and  _34
REMARK   17  A    between atoms: _37  and  _39
REMARK   18  A    between atoms: _39  and  _40
REMARK   19  A    between atoms: _39  and  _42
REMARK   20  A    between atoms: _42  and  _43
REMARK   21  A    between atoms: _49  and  _51
REMARK   22  A    between atoms: _51  and  _52
REMARK   23  A    between atoms: _51  and  _54
REMARK   24  A    between atoms: _54  and  _55
REMARK   25  A    between atoms: _58  and  _60
REMARK   26  A    between atoms: _60  and  _61
REMARK   27  A    between atoms: _64  and  _66
REMARK   28  A    between atoms: _66  and  _67
REMARK   29  A    between atoms: _66  and  _69
REMARK   30  A    between atoms: _69  and  _70
REMARK   31  A    between atoms: _73  and  _75
REMARK   32  A    between atoms: _75  and  _76
REMARK   33  A    between atoms: _75  and  _78
REMARK   34  A    between atoms: _78  and  _79
REMARK   35  A    between atoms: _81  and  _83
REMARK   36  A    between atoms: _83  and  _84
REMARK   37  A    between atoms: _83  and  _86
REMARK   38  A    between atoms: _86  and  _87
REMARK   39  A    between atoms: _87  and  _88
REMARK   40  A    between atoms: _91  and  _93
REMARK   41  A    between atoms: _93  and  _94
REMARK   42  A    between atoms: _93  and  _96
REMARK   43  A    between atoms: _96  and  _97
REMARK   44  A    between atoms: _100  and  _102
REMARK   45  A    between atoms: _102  and  _103
REMARK   46  A    between atoms: _102  and  _105
REMARK   47  A    between atoms: _105  and  _106
REMARK   48  A    between atoms: _111  and  _113
REMARK   49  A    between atoms: _113  and  _114
REMARK   50  A    between atoms: _117  and  _119
REMARK   51  A    between atoms: _119  and  _120
REMARK   52  A    between atoms: _119  and  _122
REMARK   53  A    between atoms: _122  and  _123
REMARK   54  A    between atoms: _133  and  _135
REMARK   55  A    between atoms: _135  and  _136
REMARK   56  A    between atoms: _135  and  _138
REMARK   57  A    between atoms: _138  and  _139
REMARK   58  A    between atoms: _142  and  _144
REMARK   59  A    between atoms: _144  and  _145
REMARK   60  A    between atoms: _144  and  _147
REMARK   61  A    between atoms: _147  and  _148
REMARK   62  A    between atoms: _158  and  _160
REMARK   63  A    between atoms: _160  and  _161
REMARK   64  A    between atoms: _160  and  _163
REMARK   65  A    between atoms: _163  and  _164
REMARK   66  A    between atoms: _169  and  _171
REMARK   67  A    between atoms: _171  and  _172
REMARK   68  A    between atoms: _174  and  _176
REMARK   69  A    between atoms: _176  and  _177
REMARK   70  A    between atoms: _176  and  _179
REMARK   71  A    between atoms: _179  and  _180
REMARK   72  A    between atoms: _190  and  _192
REMARK   73  A    between atoms: _192  and  _193
REMARK   74  A    between atoms: _192  and  _195
REMARK   75  A    between atoms: _195  and  _196
REMARK   76  A    between atoms: _199  and  _201
REMARK   77  A    between atoms: _201  and  _202
REMARK   78  A    between atoms: _201  and  _204
REMARK   79  A    between atoms: _204  and  _205
REMARK   80  A    between atoms: _205  and  _206
REMARK   81  A    between atoms: _208  and  _210
REMARK   82  A    between atoms: _210  and  _211
REMARK   83  A    between atoms: _210  and  _213
REMARK   84  A    between atoms: _215  and  _217
REMARK   85  A    between atoms: _217  and  _218
REMARK   86  A    between atoms: _221  and  _223
REMARK   87  A    between atoms: _223  and  _224
REMARK   88  A    between atoms: _223  and  _226
REMARK   89  A    between atoms: _226  and  _227
REMARK   90  A    between atoms: _233  and  _235
REMARK   91  A    between atoms: _235  and  _236
REMARK   92  A    between atoms: _235  and  _238
REMARK   93  A    between atoms: _238  and  _239
REMARK   94  A    between atoms: _239  and  _240
REMARK   95  A    between atoms: _242  and  _244
REMARK   96  A    between atoms: _244  and  _245
REMARK   97  A    between atoms: _244  and  _247
REMARK   98  A    between atoms: _250  and  _252
REMARK   99  A    between atoms: _252  and  _253
REMARK  100  A    between atoms: _252  and  _255
REMARK  101  A    between atoms: _257  and  _259
REMARK  102  A    between atoms: _259  and  _260
REMARK  103  A    between atoms: _263  and  _265
REMARK  104  A    between atoms: _265  and  _266
REMARK  105  A    between atoms: _265  and  _268
REMARK  106  A    between atoms: _268  and  _269
REMARK  107  A    between atoms: _269  and  _270
REMARK  108  A    between atoms: _275  and  _277
REMARK  109  A    between atoms: _277  and  _278
REMARK  110  A    between atoms: _277  and  _280
REMARK  111  A    between atoms: _280  and  _281
REMARK  112  A    between atoms: _286  and  _287
REMARK  113  A    between atoms: _290  and  _291
REMARK  114  A    between atoms: _296  and  _298
REMARK  115  A    between atoms: _298  and  _299
REMARK  116  A    between atoms: _298  and  _301
REMARK  117  A    between atoms: _301  and  _302
REMARK  118  A    between atoms: _302  and  _303
REMARK  119  A    between atoms: _305  and  _307
REMARK  120  A    between atoms: _307  and  _308
REMARK  121  A    between atoms: _311  and  _313
REMARK  122  A    between atoms: _313  and  _314
REMARK  123  A    between atoms: _313  and  _316
REMARK  124  A    between atoms: _316  and  _317
REMARK  125  A    between atoms: _320  and  _322
REMARK  126  A    between atoms: _322  and  _323
REMARK  127  A    between atoms: _325  and  _327
REMARK  128  A    between atoms: _327  and  _328
REMARK  129  A    between atoms: _327  and  _330
REMARK  130  A    between atoms: _330  and  _331
REMARK  131  A    between atoms: _336  and  _338
REMARK  132  A    between atoms: _338  and  _339
REMARK  133  A    between atoms: _338  and  _341
REMARK  134  A    between atoms: _341  and  _342
REMARK  135  A    between atoms: _345  and  _347
REMARK  136  A    between atoms: _347  and  _348
REMARK  137  A    between atoms: _347  and  _350
REMARK  138  A    between atoms: _350  and  _351
REMARK  139  A    between atoms: _356  and  _357
REMARK  140  A    between atoms: _359  and  _361
REMARK  141  A    between atoms: _361  and  _362
REMARK  142  A    between atoms: _361  and  _364
REMARK  143  A    between atoms: _364  and  _365
REMARK  144  A    between atoms: _368  and  _370
REMARK  145  A    between atoms: _370  and  _371
REMARK  146  A    between atoms: _370  and  _373
REMARK  147  A    between atoms: _373  and  _374
REMARK  148  A    between atoms: _379  and  _380
REMARK  149  A    between atoms: _383  and  _384
REMARK  150  A    between atoms: _389  and  _391
REMARK  151  A    between atoms: _391  and  _392
REMARK  152  A    between atoms: _391  and  _394
REMARK  153  A    between atoms: _394  and  _395
REMARK  154  A    between atoms: _400  and  _401
REMARK  155  A    between atoms: _403  and  _405
REMARK  156  A    between atoms: _405  and  _406
REMARK  157  A    between atoms: _405  and  _408
REMARK  158  A    between atoms: _408  and  _409
REMARK  159  A    between atoms: _409  and  _410
REMARK  160  A    between atoms: _412  and  _414
REMARK  161  A    between atoms: _414  and  _415
REMARK  162  A    between atoms: _414  and  _417
REMARK  163  A    between atoms: _417  and  _418
REMARK  164  A    between atoms: _423  and  _424
REMARK  165  A    between atoms: _426  and  _428
REMARK  166  A    between atoms: _428  and  _429
REMARK  167  A    between atoms: _428  and  _431
REMARK  168  A    between atoms: _431  and  _432
REMARK  169  A    between atoms: _435  and  _437
REMARK  170  A    between atoms: _437  and  _438
REMARK  171  A    between atoms: _441  and  _443
REMARK  172  A    between atoms: _443  and  _444
REMARK  173  A    between atoms: _446  and  _448
REMARK  174  A    between atoms: _448  and  _449
REMARK  175  A    between atoms: _448  and  _451
REMARK  176  A    between atoms: _451  and  _452
REMARK  177  A    between atoms: _457  and  _458
REMARK  178  A    between atoms: _460  and  _462
REMARK  179  A    between atoms: _462  and  _463
REMARK  180  A    between atoms: _462  and  _465
REMARK  181  A    between atoms: _465  and  _466
REMARK  182  A    between atoms: _471  and  _473
REMARK  183  A    between atoms: _473  and  _474
REMARK  184  A    between atoms: _473  and  _476
REMARK  185  A    between atoms: _478  and  _480
REMARK  186  A    between atoms: _480  and  _481
REMARK  187  A    between atoms: _480  and  _483
REMARK  188  A    between atoms: _483  and  _484
REMARK  189  A    between atoms: _484  and  _485
REMARK  190  A    between atoms: _485  and  _486
REMARK  191  A    between atoms: _495  and  _497
REMARK  192  A    between atoms: _497  and  _498
REMARK  193  A    between atoms: _501  and  _503
REMARK  194  A    between atoms: _503  and  _504
REMARK  195  A    between atoms: _507  and  _509
REMARK  196  A    between atoms: _509  and  _510
REMARK  197  A    between atoms: _509  and  _512
REMARK  198  A    between atoms: _512  and  _513
REMARK  199  A    between atoms: _523  and  _525
REMARK  200  A    between atoms: _525  and  _526
REMARK  201  A    between atoms: _525  and  _528
REMARK  202  A    between atoms: _528  and  _529
REMARK  203  A    between atoms: _532  and  _534
REMARK  204  A    between atoms: _534  and  _535
REMARK  205  A    between atoms: _534  and  _537
REMARK  206  A    between atoms: _537  and  _538
REMARK  207  A    between atoms: _538  and  _539
REMARK  208  A    between atoms: _542  and  _544
REMARK  209  A    between atoms: _544  and  _545
REMARK  210  A    between atoms: _544  and  _547
REMARK  211  A    between atoms: _547  and  _548
REMARK  212  A    between atoms: _551  and  _553
REMARK  213  A    between atoms: _553  and  _554
REMARK  214  A    between atoms: _553  and  _556
REMARK  215  A    between atoms: _556  and  _557
REMARK  216  A    between atoms: _557  and  _558
REMARK  217  A    between atoms: _561  and  _563
REMARK  218  A    between atoms: _563  and  _564
REMARK  219  A    between atoms: _563  and  _566
REMARK  220  A    between atoms: _566  and  _567
REMARK  221  A    between atoms: _573  and  _575
REMARK  222  A    between atoms: _575  and  _576
REMARK  223  A    between atoms: _575  and  _578
REMARK  224  A    between atoms: _578  and  _579
REMARK  225  A    between atoms: _579  and  _580
REMARK  226  A    between atoms: _583  and  _585
REMARK  227  A    between atoms: _585  and  _586
REMARK  228  A    between atoms: _585  and  _588
REMARK  229  A    between atoms: _591  and  _593
REMARK  230  A    between atoms: _593  and  _594
REMARK  231  A    between atoms: _593  and  _596
REMARK                            x       y       z     vdW  Elec       q    Type
REMARK                         _______ _______ _______ _____ _____    ______ ____
ROOT
ATOM      1  O   HOH     1       5.138  24.892  10.736  0.00  0.00    +0.000 OA
ENDROOT
TORSDOF 0
REMARK  Name = ../refined-set-2016/4x5z/4x5z_pocket.pdb
REMARK  231 active torsions:
REMARK  status: ('A' for Active; 'I' for Inactive)
REMARK    1  A    between atoms: _1  and  _3
REMARK    2  A    between atoms: _3  and  _4
REMARK    3  A    between atoms: _3  and  _6
REMARK    4  A    between atoms: _6  and  _7
REMARK    5  A    between atoms: _10  and  _12
REMARK    6  A    between atoms: _12  and  _13
REMARK    7  A    between atoms: _12  and  _15
REMARK    8  A    between atoms: _15  and  _16
REMARK    9  A    between atoms: _18  and  _20
REMARK   10  A    between atoms: _20  and  _21
REMARK   11  A    between atoms: _20  and  _23
REMARK   12  A    between atoms: _23  and  _24
REMARK   13  A    between atoms: _26  and  _28
REMARK   14  A    between atoms: _28  and  _29
REMARK   15  A    between atoms: _31  and  _33
REMARK   16  A    between atoms: _33  and  _34
REMARK   17  A    between atoms: _37  and  _39
REMARK   18  A    between atoms: _39  and  _40
REMARK   19  A    between atoms: _39  and  _42
REMARK   20  A    between atoms: _42  and  _43
REMARK   21  A    between atoms: _49  and  _51
REMARK   22  A    between atoms: _51  and  _52
REMARK   23  A    between atoms: _51  and  _54
REMARK   24  A    between atoms: _54  and  _55
REMARK   25  A    between atoms: _58  and  _60
REMARK   26  A    between atoms: _60  and  _61
REMARK   27  A    between atoms: _64  and  _66
REMARK   28  A    between atoms: _66  and  _67
REMARK   29  A    between atoms: _66  and  _69
REMARK   30  A    between atoms: _69  and  _70
REMARK   31  A    between atoms: _73  and  _75
REMARK   32  A    between atoms: _75  and  _76
REMARK   33  A    between atoms: _75  and  _78
REMARK   34  A    between atoms: _78  and  _79
REMARK   35  A    between atoms: _81  and  _83
REMARK   36  A    between atoms: _83  and  _84
REMARK   37  A    between atoms: _83  and  _86
REMARK   38  A    between atoms: _86  and  _87
REMARK   39  A    between atoms: _87  and  _88
REMARK   40  A    between atoms: _91  and  _93
REMARK   41  A    between atoms: _93  and  _94
REMARK   42  A    between atoms: _93  and  _96
REMARK   43  A    between atoms: _96  and  _97
REMARK   44  A    between atoms: _100  and  _102
REMARK   45  A    between atoms: _102  and  _103
REMARK   46  A    between atoms: _102  and  _105
REMARK   47  A    between atoms: _105  and  _106
REMARK   48  A    between atoms: _111  and  _113
REMARK   49  A    between atoms: _113  and  _114
REMARK   50  A    between atoms: _117  and  _119
REMARK   51  A    between atoms: _119  and  _120
REMARK   52  A    between atoms: _119  and  _122
REMARK   53  A    between atoms: _122  and  _123
REMARK   54  A    between atoms: _133  and  _135
REMARK   55  A    between atoms: _135  and  _136
REMARK   56  A    between atoms: _135  and  _138
REMARK   57  A    between atoms: _138  and  _139
REMARK   58  A    between atoms: _142  and  _144
REMARK   59  A    between atoms: _144  and  _145
REMARK   60  A    between atoms: _144  and  _147
REMARK   61  A    between atoms: _147  and  _148
REMARK   62  A    between atoms: _158  and  _160
REMARK   63  A    between atoms: _160  and  _161
REMARK   64  A    between atoms: _160  and  _163
REMARK   65  A    between atoms: _163  and  _164
REMARK   66  A    between atoms: _169  and  _171
REMARK   67  A    between atoms: _171  and  _172
REMARK   68  A    between atoms: _174  and  _176
REMARK   69  A    between atoms: _176  and  _177
REMARK   70  A    between atoms: _176  and  _179
REMARK   71  A    between atoms: _179  and  _180
REMARK   72  A    between atoms: _190  and  _192
REMARK   73  A    between atoms: _192  and  _193
REMARK   74  A    between atoms: _192  and  _195
REMARK   75  A    between atoms: _195  and  _196
REMARK   76  A    between atoms: _199  and  _201
REMARK   77  A    between atoms: _201  and  _202
REMARK   78  A    between atoms: _201  and  _204
REMARK   79  A    between atoms: _204  and  _205
REMARK   80  A    between atoms: _205  and  _206
REMARK   81  A    between atoms: _208  and  _210
REMARK   82  A    between atoms: _210  and  _211
REMARK   83  A    between atoms: _210  and  _213
REMARK   84  A    between atoms: _215  and  _217
REMARK   85  A    between atoms: _217  and  _218
REMARK   86  A    between atoms: _221  and  _223
REMARK   87  A    between atoms: _223  and  _224
REMARK   88  A    between atoms: _223  and  _226
REMARK   89  A    between atoms: _226  and  _227
REMARK   90  A    between atoms: _233  and  _235
REMARK   91  A    between atoms: _235  and  _236
REMARK   92  A    between atoms: _235  and  _238
REMARK   93  A    between atoms: _238  and  _239
REMARK   94  A    between atoms: _239  and  _240
REMARK   95  A    between atoms: _242  and  _244
REMARK   96  A    between atoms: _244  and  _245
REMARK   97  A    between atoms: _244  and  _247
REMARK   98  A    between atoms: _250  and  _252
REMARK   99  A    between atoms: _252  and  _253
REMARK  100  A    between atoms: _252  and  _255
REMARK  101  A    between atoms: _257  and  _259
REMARK  102  A    between atoms: _259  and  _260
REMARK  103  A    between atoms: _263  and  _265
REMARK  104  A    between atoms: _265  and  _266
REMARK  105  A    between atoms: _265  and  _268
REMARK  106  A    between atoms: _268  and  _269
REMARK  107  A    between atoms: _269  and  _270
REMARK  108  A    between atoms: _275  and  _277
REMARK  109  A    between atoms: _277  and  _278
REMARK  110  A    between atoms: _277  and  _280
REMARK  111  A    between atoms: _280  and  _281
REMARK  112  A    between atoms: _286  and  _287
REMARK  113  A    between atoms: _290  and  _291
REMARK  114  A    between atoms: _296  and  _298
REMARK  115  A    between atoms: _298  and  _299
REMARK  116  A    between atoms: _298  and  _301
REMARK  117  A    between atoms: _301  and  _302
REMARK  118  A    between atoms: _302  and  _303
REMARK  119  A    between atoms: _305  and  _307
REMARK  120  A    between atoms: _307  and  _308
REMARK  121  A    between atoms: _311  and  _313
REMARK  122  A    between atoms: _313  and  _314
REMARK  123  A    between atoms: _313  and  _316
REMARK  124  A    between atoms: _316  and  _317
REMARK  125  A    between atoms: _320  and  _322
REMARK  126  A    between atoms: _322  and  _323
REMARK  127  A    between atoms: _325  and  _327
REMARK  128  A    between atoms: _327  and  _328
REMARK  129  A    between atoms: _327  and  _330
REMARK  130  A    between atoms: _330  and  _331
REMARK  131  A    between atoms: _336  and  _338
REMARK  132  A    between atoms: _338  and  _339
REMARK  133  A    between atoms: _338  and  _341
REMARK  134  A    between atoms: _341  and  _342
REMARK  135  A    between atoms: _345  and  _347
REMARK  136  A    between atoms: _347  and  _348
REMARK  137  A    between atoms: _347  and  _350
REMARK  138  A    between atoms: _350  and  _351
REMARK  139  A    between atoms: _356  and  _357
REMARK  140  A    between atoms: _359  and  _361
REMARK  141  A    between atoms: _361  and  _362
REMARK  142  A    between atoms: _361  and  _364
REMARK  143  A    between atoms: _364  and  _365
REMARK  144  A    between atoms: _368  and  _370
REMARK  145  A    between atoms: _370  and  _371
REMARK  146  A    between atoms: _370  and  _373
REMARK  147  A    between atoms: _373  and  _374
REMARK  148  A    between atoms: _379  and  _380
REMARK  149  A    between atoms: _383  and  _384
REMARK  150  A    between atoms: _389  and  _391
REMARK  151  A    between atoms: _391  and  _392
REMARK  152  A    between atoms: _391  and  _394
REMARK  153  A    between atoms: _394  and  _395
REMARK  154  A    between atoms: _400  and  _401
REMARK  155  A    between atoms: _403  and  _405
REMARK  156  A    between atoms: _405  and  _406
REMARK  157  A    between atoms: _405  and  _408
REMARK  158  A    between atoms: _408  and  _409
REMARK  159  A    between atoms: _409  and  _410
REMARK  160  A    between atoms: _412  and  _414
REMARK  161  A    between atoms: _414  and  _415
REMARK  162  A    between atoms: _414  and  _417
REMARK  163  A    between atoms: _417  and  _418
REMARK  164  A    between atoms: _423  and  _424
REMARK  165  A    between atoms: _426  and  _428
REMARK  166  A    between atoms: _428  and  _429
REMARK  167  A    between atoms: _428  and  _431
REMARK  168  A    between atoms: _431  and  _432
REMARK  169  A    between atoms: _435  and  _437
REMARK  170  A    between atoms: _437  and  _438
REMARK  171  A    between atoms: _441  and  _443
REMARK  172  A    between atoms: _443  and  _444
REMARK  173  A    between atoms: _446  and  _448
REMARK  174  A    between atoms: _448  and  _449
REMARK  175  A    between atoms: _448  and  _451
REMARK  176  A    between atoms: _451  and  _452
REMARK  177  A    between atoms: _457  and  _458
REMARK  178  A    between atoms: _460  and  _462
REMARK  179  A    between atoms: _462  and  _463
REMARK  180  A    between atoms: _462  and  _465
REMARK  181  A    between atoms: _465  and  _466
REMARK  182  A    between atoms: _471  and  _473
REMARK  183  A    between atoms: _473  and  _474
REMARK  184  A    between atoms: _473  and  _476
REMARK  185  A    between atoms: _478  and  _480
REMARK  186  A    between atoms: _480  and  _481
REMARK  187  A    between atoms: _480  and  _483
REMARK  188  A    between atoms: _483  and  _484
REMARK  189  A    between atoms: _484  and  _485
REMARK  190  A    between atoms: _485  and  _486
REMARK  191  A    between atoms: _495  and  _497
REMARK  192  A    between atoms: _497  and  _498
REMARK  193  A    between atoms: _501  and  _503
REMARK  194  A    between atoms: _503  and  _504
REMARK  195  A    between atoms: _507  and  _509
REMARK  196  A    between atoms: _509  and  _510
REMARK  197  A    between atoms: _509  and  _512
REMARK  198  A    between atoms: _512  and  _513
REMARK  199  A    between atoms: _523  and  _525
REMARK  200  A    between atoms: _525  and  _526
REMARK  201  A    between atoms: _525  and  _528
REMARK  202  A    between atoms: _528  and  _529
REMARK  203  A    between atoms: _532  and  _534
REMARK  204  A    between atoms: _534  and  _535
REMARK  205  A    between atoms: _534  and  _537
REMARK  206  A    between atoms: _537  and  _538
REMARK  207  A    between atoms: _538  and  _539
REMARK  208  A    between atoms: _542  and  _544
REMARK  209  A    between atoms: _544  and  _545
REMARK  210  A    between atoms: _544  and  _547
REMARK  211  A    between atoms: _547  and  _548
REMARK  212  A    between atoms: _551  and  _553
REMARK  213  A    between atoms: _553  and  _554
REMARK  214  A    between atoms: _553  and  _556
REMARK  215  A    between atoms: _556  and  _557
REMARK  216  A    between atoms: _557  and  _558
REMARK  217  A    between atoms: _561  and  _563
REMARK  218  A    between atoms: _563  and  _564
REMARK  219  A    between atoms: _563  and  _566
REMARK  220  A    between atoms: _566  and  _567
REMARK  221  A    between atoms: _573  and  _575
REMARK  222  A    between atoms: _575  and  _576
REMARK  223  A    between atoms: _575  and  _578
REMARK  224  A    between atoms: _578  and  _579
REMARK  225  A    between atoms: _579  and  _580
REMARK  226  A    between atoms: _583  and  _585
REMARK  227  A    between atoms: _585  and  _586
REMARK  228  A    between atoms: _585  and  _588
REMARK  229  A    between atoms: _591  and  _593
REMARK  230  A    between atoms: _593  and  _594
REMARK  231  A    between atoms: _593  and  _596
REMARK                            x       y       z     vdW  Elec       q    Type
REMARK                         _______ _______ _______ _____ _____    ______ ____
ROOT
ATOM      1  O   HOH     1       3.873  17.936  11.933  0.00  0.00    +0.000 OA
ENDROOT
TORSDOF 0
REMARK  Name = ../refined-set-2016/4x5z/4x5z_pocket.pdb
REMARK  231 active torsions:
REMARK  status: ('A' for Active; 'I' for Inactive)
REMARK    1  A    between atoms: _1  and  _3
REMARK    2  A    between atoms: _3  and  _4
REMARK    3  A    between atoms: _3  and  _6
REMARK    4  A    between atoms: _6  and  _7
REMARK    5  A    between atoms: _10  and  _12
REMARK    6  A    between atoms: _12  and  _13
REMARK    7  A    between atoms: _12  and  _15
REMARK    8  A    between atoms: _15  and  _16
REMARK    9  A    between atoms: _18  and  _20
REMARK   10  A    between atoms: _20  and  _21
REMARK   11  A    between atoms: _20  and  _23
REMARK   12  A    between atoms: _23  and  _24
REMARK   13  A    between atoms: _26  and  _28
REMARK   14  A    between atoms: _28  and  _29
REMARK   15  A    between atoms: _31  and  _33
REMARK   16  A    between atoms: _33  and  _34
REMARK   17  A    between atoms: _37  and  _39
REMARK   18  A    between atoms: _39  and  _40
REMARK   19  A    between atoms: _39  and  _42
REMARK   20  A    between atoms: _42  and  _43
REMARK   21  A    between atoms: _49  and  _51
REMARK   22  A    between atoms: _51  and  _52
REMARK   23  A    between atoms: _51  and  _54
REMARK   24  A    between atoms: _54  and  _55
REMARK   25  A    between atoms: _58  and  _60
REMARK   26  A    between atoms: _60  and  _61
REMARK   27  A    between atoms: _64  and  _66
REMARK   28  A    between atoms: _66  and  _67
REMARK   29  A    between atoms: _66  and  _69
REMARK   30  A    between atoms: _69  and  _70
REMARK   31  A    between atoms: _73  and  _75
REMARK   32  A    between atoms: _75  and  _76
REMARK   33  A    between atoms: _75  and  _78
REMARK   34  A    between atoms: _78  and  _79
REMARK   35  A    between atoms: _81  and  _83
REMARK   36  A    between atoms: _83  and  _84
REMARK   37  A    between atoms: _83  and  _86
REMARK   38  A    between atoms: _86  and  _87
REMARK   39  A    between atoms: _87  and  _88
REMARK   40  A    between atoms: _91  and  _93
REMARK   41  A    between atoms: _93  and  _94
REMARK   42  A    between atoms: _93  and  _96
REMARK   43  A    between atoms: _96  and  _97
REMARK   44  A    between atoms: _100  and  _102
REMARK   45  A    between atoms: _102  and  _103
REMARK   46  A    between atoms: _102  and  _105
REMARK   47  A    between atoms: _105  and  _106
REMARK   48  A    between atoms: _111  and  _113
REMARK   49  A    between atoms: _113  and  _114
REMARK   50  A    between atoms: _117  and  _119
REMARK   51  A    between atoms: _119  and  _120
REMARK   52  A    between atoms: _119  and  _122
REMARK   53  A    between atoms: _122  and  _123
REMARK   54  A    between atoms: _133  and  _135
REMARK   55  A    between atoms: _135  and  _136
REMARK   56  A    between atoms: _135  and  _138
REMARK   57  A    between atoms: _138  and  _139
REMARK   58  A    between atoms: _142  and  _144
REMARK   59  A    between atoms: _144  and  _145
REMARK   60  A    between atoms: _144  and  _147
REMARK   61  A    between atoms: _147  and  _148
REMARK   62  A    between atoms: _158  and  _160
REMARK   63  A    between atoms: _160  and  _161
REMARK   64  A    between atoms: _160  and  _163
REMARK   65  A    between atoms: _163  and  _164
REMARK   66  A    between atoms: _169  and  _171
REMARK   67  A    between atoms: _171  and  _172
REMARK   68  A    between atoms: _174  and  _176
REMARK   69  A    between atoms: _176  and  _177
REMARK   70  A    between atoms: _176  and  _179
REMARK   71  A    between atoms: _179  and  _180
REMARK   72  A    between atoms: _190  and  _192
REMARK   73  A    between atoms: _192  and  _193
REMARK   74  A    between atoms: _192  and  _195
REMARK   75  A    between atoms: _195  and  _196
REMARK   76  A    between atoms: _199  and  _201
REMARK   77  A    between atoms: _201  and  _202
REMARK   78  A    between atoms: _201  and  _204
REMARK   79  A    between atoms: _204  and  _205
REMARK   80  A    between atoms: _205  and  _206
REMARK   81  A    between atoms: _208  and  _210
REMARK   82  A    between atoms: _210  and  _211
REMARK   83  A    between atoms: _210  and  _213
REMARK   84  A    between atoms: _215  and  _217
REMARK   85  A    between atoms: _217  and  _218
REMARK   86  A    between atoms: _221  and  _223
REMARK   87  A    between atoms: _223  and  _224
REMARK   88  A    between atoms: _223  and  _226
REMARK   89  A    between atoms: _226  and  _227
REMARK   90  A    between atoms: _233  and  _235
REMARK   91  A    between atoms: _235  and  _236
REMARK   92  A    between atoms: _235  and  _238
REMARK   93  A    between atoms: _238  and  _239
REMARK   94  A    between atoms: _239  and  _240
REMARK   95  A    between atoms: _242  and  _244
REMARK   96  A    between atoms: _244  and  _245
REMARK   97  A    between atoms: _244  and  _247
REMARK   98  A    between atoms: _250  and  _252
REMARK   99  A    between atoms: _252  and  _253
REMARK  100  A    between atoms: _252  and  _255
REMARK  101  A    between atoms: _257  and  _259
REMARK  102  A    between atoms: _259  and  _260
REMARK  103  A    between atoms: _263  and  _265
REMARK  104  A    between atoms: _265  and  _266
REMARK  105  A    between atoms: _265  and  _268
REMARK  106  A    between atoms: _268  and  _269
REMARK  107  A    between atoms: _269  and  _270
REMARK  108  A    between atoms: _275  and  _277
REMARK  109  A    between atoms: _277  and  _278
REMARK  110  A    between atoms: _277  and  _280
REMARK  111  A    between atoms: _280  and  _281
REMARK  112  A    between atoms: _286  and  _287
REMARK  113  A    between atoms: _290  and  _291
REMARK  114  A    between atoms: _296  and  _298
REMARK  115  A    between atoms: _298  and  _299
REMARK  116  A    between atoms: _298  and  _301
REMARK  117  A    between atoms: _301  and  _302
REMARK  118  A    between atoms: _302  and  _303
REMARK  119  A    between atoms: _305  and  _307
REMARK  120  A    between atoms: _307  and  _308
REMARK  121  A    between atoms: _311  and  _313
REMARK  122  A    between atoms: _313  and  _314
REMARK  123  A    between atoms: _313  and  _316
REMARK  124  A    between atoms: _316  and  _317
REMARK  125  A    between atoms: _320  and  _322
REMARK  126  A    between atoms: _322  and  _323
REMARK  127  A    between atoms: _325  and  _327
REMARK  128  A    between atoms: _327  and  _328
REMARK  129  A    between atoms: _327  and  _330
REMARK  130  A    between atoms: _330  and  _331
REMARK  131  A    between atoms: _336  and  _338
REMARK  132  A    between atoms: _338  and  _339
REMARK  133  A    between atoms: _338  and  _341
REMARK  134  A    between atoms: _341  and  _342
REMARK  135  A    between atoms: _345  and  _347
REMARK  136  A    between atoms: _347  and  _348
REMARK  137  A    between atoms: _347  and  _350
REMARK  138  A    between atoms: _350  and  _351
REMARK  139  A    between atoms: _356  and  _357
REMARK  140  A    between atoms: _359  and  _361
REMARK  141  A    between atoms: _361  and  _362
REMARK  142  A    between atoms: _361  and  _364
REMARK  143  A    between atoms: _364  and  _365
REMARK  144  A    between atoms: _368  and  _370
REMARK  145  A    between atoms: _370  and  _371
REMARK  146  A    between atoms: _370  and  _373
REMARK  147  A    between atoms: _373  and  _374
REMARK  148  A    between atoms: _379  and  _380
REMARK  149  A    between atoms: _383  and  _384
REMARK  150  A    between atoms: _389  and  _391
REMARK  151  A    between atoms: _391  and  _392
REMARK  152  A    between atoms: _391  and  _394
REMARK  153  A    between atoms: _394  and  _395
REMARK  154  A    between atoms: _400  and  _401
REMARK  155  A    between atoms: _403  and  _405
REMARK  156  A    between atoms: _405  and  _406
REMARK  157  A    between atoms: _405  and  _408
REMARK  158  A    between atoms: _408  and  _409
REMARK  159  A    between atoms: _409  and  _410
REMARK  160  A    between atoms: _412  and  _414
REMARK  161  A    between atoms: _414  and  _415
REMARK  162  A    between atoms: _414  and  _417
REMARK  163  A    between atoms: _417  and  _418
REMARK  164  A    between atoms: _423  and  _424
REMARK  165  A    between atoms: _426  and  _428
REMARK  166  A    between atoms: _428  and  _429
REMARK  167  A    between atoms: _428  and  _431
REMARK  168  A    between atoms: _431  and  _432
REMARK  169  A    between atoms: _435  and  _437
REMARK  170  A    between atoms: _437  and  _438
REMARK  171  A    between atoms: _441  and  _443
REMARK  172  A    between atoms: _443  and  _444
REMARK  173  A    between atoms: _446  and  _448
REMARK  174  A    between atoms: _448  and  _449
REMARK  175  A    between atoms: _448  and  _451
REMARK  176  A    between atoms: _451  and  _452
REMARK  177  A    between atoms: _457  and  _458
REMARK  178  A    between atoms: _460  and  _462
REMARK  179  A    between atoms: _462  and  _463
REMARK  180  A    between atoms: _462  and  _465
REMARK  181  A    between atoms: _465  and  _466
REMARK  182  A    between atoms: _471  and  _473
REMARK  183  A    between atoms: _473  and  _474
REMARK  184  A    between atoms: _473  and  _476
REMARK  185  A    between atoms: _478  and  _480
REMARK  186  A    between atoms: _480  and  _481
REMARK  187  A    between atoms: _480  and  _483
REMARK  188  A    between atoms: _483  and  _484
REMARK  189  A    between atoms: _484  and  _485
REMARK  190  A    between atoms: _485  and  _486
REMARK  191  A    between atoms: _495  and  _497
REMARK  192  A    between atoms: _497  and  _498
REMARK  193  A    between atoms: _501  and  _503
REMARK  194  A    between atoms: _503  and  _504
REMARK  195  A    between atoms: _507  and  _509
REMARK  196  A    between atoms: _509  and  _510
REMARK  197  A    between atoms: _509  and  _512
REMARK  198  A    between atoms: _512  and  _513
REMARK  199  A    between atoms: _523  and  _525
REMARK  200  A    between atoms: _525  and  _526
REMARK  201  A    between atoms: _525  and  _528
REMARK  202  A    between atoms: _528  and  _529
REMARK  203  A    between atoms: _532  and  _534
REMARK  204  A    between atoms: _534  and  _535
REMARK  205  A    between atoms: _534  and  _537
REMARK  206  A    between atoms: _537  and  _538
REMARK  207  A    between atoms: _538  and  _539
REMARK  208  A    between atoms: _542  and  _544
REMARK  209  A    between atoms: _544  and  _545
REMARK  210  A    between atoms: _544  and  _547
REMARK  211  A    between atoms: _547  and  _548
REMARK  212  A    between atoms: _551  and  _553
REMARK  213  A    between atoms: _553  and  _554
REMARK  214  A    between atoms: _553  and  _556
REMARK  215  A    between atoms: _556  and  _557
REMARK  216  A    between atoms: _557  and  _558
REMARK  217  A    between atoms: _561  and  _563
REMARK  218  A    between atoms: _563  and  _564
REMARK  219  A    between atoms: _563  and  _566
REMARK  220  A    between atoms: _566  and  _567
REMARK  221  A    between atoms: _573  and  _575
REMARK  222  A    between atoms: _575  and  _576
REMARK  223  A    between atoms: _575  and  _578
REMARK  224  A    between atoms: _578  and  _579
REMARK  225  A    between atoms: _579  and  _580
REMARK  226  A    between atoms: _583  and  _585
REMARK  227  A    between atoms: _585  and  _586
REMARK  228  A    between atoms: _585  and  _588
REMARK  229  A    between atoms: _591  and  _593
REMARK  230  A    between atoms: _593  and  _594
REMARK  231  A    between atoms: _593  and  _596
REMARK                            x       y       z     vdW  Elec       q    Type
REMARK                         _______ _______ _______ _____ _____    ______ ____
ROOT
ATOM      1  O   HOH     1      20.349   8.623   8.101  0.00  0.00    +0.000 OA
ENDROOT
TORSDOF 0
REMARK  Name = ../refined-set-2016/4x5z/4x5z_pocket.pdb
REMARK  231 active torsions:
REMARK  status: ('A' for Active; 'I' for Inactive)
REMARK    1  A    between atoms: _1  and  _3
REMARK    2  A    between atoms: _3  and  _4
REMARK    3  A    between atoms: _3  and  _6
REMARK    4  A    between atoms: _6  and  _7
REMARK    5  A    between atoms: _10  and  _12
REMARK    6  A    between atoms: _12  and  _13
REMARK    7  A    between atoms: _12  and  _15
REMARK    8  A    between atoms: _15  and  _16
REMARK    9  A    between atoms: _18  and  _20
REMARK   10  A    between atoms: _20  and  _21
REMARK   11  A    between atoms: _20  and  _23
REMARK   12  A    between atoms: _23  and  _24
REMARK   13  A    between atoms: _26  and  _28
REMARK   14  A    between atoms: _28  and  _29
REMARK   15  A    between atoms: _31  and  _33
REMARK   16  A    between atoms: _33  and  _34
REMARK   17  A    between atoms: _37  and  _39
REMARK   18  A    between atoms: _39  and  _40
REMARK   19  A    between atoms: _39  and  _42
REMARK   20  A    between atoms: _42  and  _43
REMARK   21  A    between atoms: _49  and  _51
REMARK   22  A    between atoms: _51  and  _52
REMARK   23  A    between atoms: _51  and  _54
REMARK   24  A    between atoms: _54  and  _55
REMARK   25  A    between atoms: _58  and  _60
REMARK   26  A    between atoms: _60  and  _61
REMARK   27  A    between atoms: _64  and  _66
REMARK   28  A    between atoms: _66  and  _67
REMARK   29  A    between atoms: _66  and  _69
REMARK   30  A    between atoms: _69  and  _70
REMARK   31  A    between atoms: _73  and  _75
REMARK   32  A    between atoms: _75  and  _76
REMARK   33  A    between atoms: _75  and  _78
REMARK   34  A    between atoms: _78  and  _79
REMARK   35  A    between atoms: _81  and  _83
REMARK   36  A    between atoms: _83  and  _84
REMARK   37  A    between atoms: _83  and  _86
REMARK   38  A    between atoms: _86  and  _87
REMARK   39  A    between atoms: _87  and  _88
REMARK   40  A    between atoms: _91  and  _93
REMARK   41  A    between atoms: _93  and  _94
REMARK   42  A    between atoms: _93  and  _96
REMARK   43  A    between atoms: _96  and  _97
REMARK   44  A    between atoms: _100  and  _102
REMARK   45  A    between atoms: _102  and  _103
REMARK   46  A    between atoms: _102  and  _105
REMARK   47  A    between atoms: _105  and  _106
REMARK   48  A    between atoms: _111  and  _113
REMARK   49  A    between atoms: _113  and  _114
REMARK   50  A    between atoms: _117  and  _119
REMARK   51  A    between atoms: _119  and  _120
REMARK   52  A    between atoms: _119  and  _122
REMARK   53  A    between atoms: _122  and  _123
REMARK   54  A    between atoms: _133  and  _135
REMARK   55  A    between atoms: _135  and  _136
REMARK   56  A    between atoms: _135  and  _138
REMARK   57  A    between atoms: _138  and  _139
REMARK   58  A    between atoms: _142  and  _144
REMARK   59  A    between atoms: _144  and  _145
REMARK   60  A    between atoms: _144  and  _147
REMARK   61  A    between atoms: _147  and  _148
REMARK   62  A    between atoms: _158  and  _160
REMARK   63  A    between atoms: _160  and  _161
REMARK   64  A    between atoms: _160  and  _163
REMARK   65  A    between atoms: _163  and  _164
REMARK   66  A    between atoms: _169  and  _171
REMARK   67  A    between atoms: _171  and  _172
REMARK   68  A    between atoms: _174  and  _176
REMARK   69  A    between atoms: _176  and  _177
REMARK   70  A    between atoms: _176  and  _179
REMARK   71  A    between atoms: _179  and  _180
REMARK   72  A    between atoms: _190  and  _192
REMARK   73  A    between atoms: _192  and  _193
REMARK   74  A    between atoms: _192  and  _195
REMARK   75  A    between atoms: _195  and  _196
REMARK   76  A    between atoms: _199  and  _201
REMARK   77  A    between atoms: _201  and  _202
REMARK   78  A    between atoms: _201  and  _204
REMARK   79  A    between atoms: _204  and  _205
REMARK   80  A    between atoms: _205  and  _206
REMARK   81  A    between atoms: _208  and  _210
REMARK   82  A    between atoms: _210  and  _211
REMARK   83  A    between atoms: _210  and  _213
REMARK   84  A    between atoms: _215  and  _217
REMARK   85  A    between atoms: _217  and  _218
REMARK   86  A    between atoms: _221  and  _223
REMARK   87  A    between atoms: _223  and  _224
REMARK   88  A    between atoms: _223  and  _226
REMARK   89  A    between atoms: _226  and  _227
REMARK   90  A    between atoms: _233  and  _235
REMARK   91  A    between atoms: _235  and  _236
REMARK   92  A    between atoms: _235  and  _238
REMARK   93  A    between atoms: _238  and  _239
REMARK   94  A    between atoms: _239  and  _240
REMARK   95  A    between atoms: _242  and  _244
REMARK   96  A    between atoms: _244  and  _245
REMARK   97  A    between atoms: _244  and  _247
REMARK   98  A    between atoms: _250  and  _252
REMARK   99  A    between atoms: _252  and  _253
REMARK  100  A    between atoms: _252  and  _255
REMARK  101  A    between atoms: _257  and  _259
REMARK  102  A    between atoms: _259  and  _260
REMARK  103  A    between atoms: _263  and  _265
REMARK  104  A    between atoms: _265  and  _266
REMARK  105  A    between atoms: _265  and  _268
REMARK  106  A    between atoms: _268  and  _269
REMARK  107  A    between atoms: _269  and  _270
REMARK  108  A    between atoms: _275  and  _277
REMARK  109  A    between atoms: _277  and  _278
REMARK  110  A    between atoms: _277  and  _280
REMARK  111  A    between atoms: _280  and  _281
REMARK  112  A    between atoms: _286  and  _287
REMARK  113  A    between atoms: _290  and  _291
REMARK  114  A    between atoms: _296  and  _298
REMARK  115  A    between atoms: _298  and  _299
REMARK  116  A    between atoms: _298  and  _301
REMARK  117  A    between atoms: _301  and  _302
REMARK  118  A    between atoms: _302  and  _303
REMARK  119  A    between atoms: _305  and  _307
REMARK  120  A    between atoms: _307  and  _308
REMARK  121  A    between atoms: _311  and  _313
REMARK  122  A    between atoms: _313  and  _314
REMARK  123  A    between atoms: _313  and  _316
REMARK  124  A    between atoms: _316  and  _317
REMARK  125  A    between atoms: _320  and  _322
REMARK  126  A    between atoms: _322  and  _323
REMARK  127  A    between atoms: _325  and  _327
REMARK  128  A    between atoms: _327  and  _328
REMARK  129  A    between atoms: _327  and  _330
REMARK  130  A    between atoms: _330  and  _331
REMARK  131  A    between atoms: _336  and  _338
REMARK  132  A    between atoms: _338  and  _339
REMARK  133  A    between atoms: _338  and  _341
REMARK  134  A    between atoms: _341  and  _342
REMARK  135  A    between atoms: _345  and  _347
REMARK  136  A    between atoms: _347  and  _348
REMARK  137  A    between atoms: _347  and  _350
REMARK  138  A    between atoms: _350  and  _351
REMARK  139  A    between atoms: _356  and  _357
REMARK  140  A    between atoms: _359  and  _361
REMARK  141  A    between atoms: _361  and  _362
REMARK  142  A    between atoms: _361  and  _364
REMARK  143  A    between atoms: _364  and  _365
REMARK  144  A    between atoms: _368  and  _370
REMARK  145  A    between atoms: _370  and  _371
REMARK  146  A    between atoms: _370  and  _373
REMARK  147  A    between atoms: _373  and  _374
REMARK  148  A    between atoms: _379  and  _380
REMARK  149  A    between atoms: _383  and  _384
REMARK  150  A    between atoms: _389  and  _391
REMARK  151  A    between atoms: _391  and  _392
REMARK  152  A    between atoms: _391  and  _394
REMARK  153  A    between atoms: _394  and  _395
REMARK  154  A    between atoms: _400  and  _401
REMARK  155  A    between atoms: _403  and  _405
REMARK  156  A    between atoms: _405  and  _406
REMARK  157  A    between atoms: _405  and  _408
REMARK  158  A    between atoms: _408  and  _409
REMARK  159  A    between atoms: _409  and  _410
REMARK  160  A    between atoms: _412  and  _414
REMARK  161  A    between atoms: _414  and  _415
REMARK  162  A    between atoms: _414  and  _417
REMARK  163  A    between atoms: _417  and  _418
REMARK  164  A    between atoms: _423  and  _424
REMARK  165  A    between atoms: _426  and  _428
REMARK  166  A    between atoms: _428  and  _429
REMARK  167  A    between atoms: _428  and  _431
REMARK  168  A    between atoms: _431  and  _432
REMARK  169  A    between atoms: _435  and  _437
REMARK  170  A    between atoms: _437  and  _438
REMARK  171  A    between atoms: _441  and  _443
REMARK  172  A    between atoms: _443  and  _444
REMARK  173  A    between atoms: _446  and  _448
REMARK  174  A    between atoms: _448  and  _449
REMARK  175  A    between atoms: _448  and  _451
REMARK  176  A    between atoms: _451  and  _452
REMARK  177  A    between atoms: _457  and  _458
REMARK  178  A    between atoms: _460  and  _462
REMARK  179  A    between atoms: _462  and  _463
REMARK  180  A    between atoms: _462  and  _465
REMARK  181  A    between atoms: _465  and  _466
REMARK  182  A    between atoms: _471  and  _473
REMARK  183  A    between atoms: _473  and  _474
REMARK  184  A    between atoms: _473  and  _476
REMARK  185  A    between atoms: _478  and  _480
REMARK  186  A    between atoms: _480  and  _481
REMARK  187  A    between atoms: _480  and  _483
REMARK  188  A    between atoms: _483  and  _484
REMARK  189  A    between atoms: _484  and  _485
REMARK  190  A    between atoms: _485  and  _486
REMARK  191  A    between atoms: _495  and  _497
REMARK  192  A    between atoms: _497  and  _498
REMARK  193  A    between atoms: _501  and  _503
REMARK  194  A    between atoms: _503  and  _504
REMARK  195  A    between atoms: _507  and  _509
REMARK  196  A    between atoms: _509  and  _510
REMARK  197  A    between atoms: _509  and  _512
REMARK  198  A    between atoms: _512  and  _513
REMARK  199  A    between atoms: _523  and  _525
REMARK  200  A    between atoms: _525  and  _526
REMARK  201  A    between atoms: _525  and  _528
REMARK  202  A    between atoms: _528  and  _529
REMARK  203  A    between atoms: _532  and  _534
REMARK  204  A    between atoms: _534  and  _535
REMARK  205  A    between atoms: _534  and  _537
REMARK  206  A    between atoms: _537  and  _538
REMARK  207  A    between atoms: _538  and  _539
REMARK  208  A    between atoms: _542  and  _544
REMARK  209  A    between atoms: _544  and  _545
REMARK  210  A    between atoms: _544  and  _547
REMARK  211  A    between atoms: _547  and  _548
REMARK  212  A    between atoms: _551  and  _553
REMARK  213  A    between atoms: _553  and  _554
REMARK  214  A    between atoms: _553  and  _556
REMARK  215  A    between atoms: _556  and  _557
REMARK  216  A    between atoms: _557  and  _558
REMARK  217  A    between atoms: _561  and  _563
REMARK  218  A    between atoms: _563  and  _564
REMARK  219  A    between atoms: _563  and  _566
REMARK  220  A    between atoms: _566  and  _567
REMARK  221  A    between atoms: _573  and  _575
REMARK  222  A    between atoms: _575  and  _576
REMARK  223  A    between atoms: _575  and  _578
REMARK  224  A    between atoms: _578  and  _579
REMARK  225  A    between atoms: _579  and  _580
REMARK  226  A    between atoms: _583  and  _585
REMARK  227  A    between atoms: _585  and  _586
REMARK  228  A    between atoms: _585  and  _588
REMARK  229  A    between atoms: _591  and  _593
REMARK  230  A    between atoms: _593  and  _594
REMARK  231  A    between atoms: _593  and  _596
REMARK                            x       y       z     vdW  Elec       q    Type
REMARK                         _______ _______ _______ _____ _____    ______ ____
ROOT
ATOM      1  O   HOH     1      17.304   2.986   5.509  0.00  0.00    +0.000 OA
ENDROOT
TORSDOF 0
REMARK  Name = ../refined-set-2016/4x5z/4x5z_pocket.pdb
REMARK  231 active torsions:
REMARK  status: ('A' for Active; 'I' for Inactive)
REMARK    1  A    between atoms: _1  and  _3
REMARK    2  A    between atoms: _3  and  _4
REMARK    3  A    between atoms: _3  and  _6
REMARK    4  A    between atoms: _6  and  _7
REMARK    5  A    between atoms: _10  and  _12
REMARK    6  A    between atoms: _12  and  _13
REMARK    7  A    between atoms: _12  and  _15
REMARK    8  A    between atoms: _15  and  _16
REMARK    9  A    between atoms: _18  and  _20
REMARK   10  A    between atoms: _20  and  _21
REMARK   11  A    between atoms: _20  and  _23
REMARK   12  A    between atoms: _23  and  _24
REMARK   13  A    between atoms: _26  and  _28
REMARK   14  A    between atoms: _28  and  _29
REMARK   15  A    between atoms: _31  and  _33
REMARK   16  A    between atoms: _33  and  _34
REMARK   17  A    between atoms: _37  and  _39
REMARK   18  A    between atoms: _39  and  _40
REMARK   19  A    between atoms: _39  and  _42
REMARK   20  A    between atoms: _42  and  _43
REMARK   21  A    between atoms: _49  and  _51
REMARK   22  A    between atoms: _51  and  _52
REMARK   23  A    between atoms: _51  and  _54
REMARK   24  A    between atoms: _54  and  _55
REMARK   25  A    between atoms: _58  and  _60
REMARK   26  A    between atoms: _60  and  _61
REMARK   27  A    between atoms: _64  and  _66
REMARK   28  A    between atoms: _66  and  _67
REMARK   29  A    between atoms: _66  and  _69
REMARK   30  A    between atoms: _69  and  _70
REMARK   31  A    between atoms: _73  and  _75
REMARK   32  A    between atoms: _75  and  _76
REMARK   33  A    between atoms: _75  and  _78
REMARK   34  A    between atoms: _78  and  _79
REMARK   35  A    between atoms: _81  and  _83
REMARK   36  A    between atoms: _83  and  _84
REMARK   37  A    between atoms: _83  and  _86
REMARK   38  A    between atoms: _86  and  _87
REMARK   39  A    between atoms: _87  and  _88
REMARK   40  A    between atoms: _91  and  _93
REMARK   41  A    between atoms: _93  and  _94
REMARK   42  A    between atoms: _93  and  _96
REMARK   43  A    between atoms: _96  and  _97
REMARK   44  A    between atoms: _100  and  _102
REMARK   45  A    between atoms: _102  and  _103
REMARK   46  A    between atoms: _102  and  _105
REMARK   47  A    between atoms: _105  and  _106
REMARK   48  A    between atoms: _111  and  _113
REMARK   49  A    between atoms: _113  and  _114
REMARK   50  A    between atoms: _117  and  _119
REMARK   51  A    between atoms: _119  and  _120
REMARK   52  A    between atoms: _119  and  _122
REMARK   53  A    between atoms: _122  and  _123
REMARK   54  A    between atoms: _133  and  _135
REMARK   55  A    between atoms: _135  and  _136
REMARK   56  A    between atoms: _135  and  _138
REMARK   57  A    between atoms: _138  and  _139
REMARK   58  A    between atoms: _142  and  _144
REMARK   59  A    between atoms: _144  and  _145
REMARK   60  A    between atoms: _144  and  _147
REMARK   61  A    between atoms: _147  and  _148
REMARK   62  A    between atoms: _158  and  _160
REMARK   63  A    between atoms: _160  and  _161
REMARK   64  A    between atoms: _160  and  _163
REMARK   65  A    between atoms: _163  and  _164
REMARK   66  A    between atoms: _169  and  _171
REMARK   67  A    between atoms: _171  and  _172
REMARK   68  A    between atoms: _174  and  _176
REMARK   69  A    between atoms: _176  and  _177
REMARK   70  A    between atoms: _176  and  _179
REMARK   71  A    between atoms: _179  and  _180
REMARK   72  A    between atoms: _190  and  _192
REMARK   73  A    between atoms: _192  and  _193
REMARK   74  A    between atoms: _192  and  _195
REMARK   75  A    between atoms: _195  and  _196
REMARK   76  A    between atoms: _199  and  _201
REMARK   77  A    between atoms: _201  and  _202
REMARK   78  A    between atoms: _201  and  _204
REMARK   79  A    between atoms: _204  and  _205
REMARK   80  A    between atoms: _205  and  _206
REMARK   81  A    between atoms: _208  and  _210
REMARK   82  A    between atoms: _210  and  _211
REMARK   83  A    between atoms: _210  and  _213
REMARK   84  A    between atoms: _215  and  _217
REMARK   85  A    between atoms: _217  and  _218
REMARK   86  A    between atoms: _221  and  _223
REMARK   87  A    between atoms: _223  and  _224
REMARK   88  A    between atoms: _223  and  _226
REMARK   89  A    between atoms: _226  and  _227
REMARK   90  A    between atoms: _233  and  _235
REMARK   91  A    between atoms: _235  and  _236
REMARK   92  A    between atoms: _235  and  _238
REMARK   93  A    between atoms: _238  and  _239
REMARK   94  A    between atoms: _239  and  _240
REMARK   95  A    between atoms: _242  and  _244
REMARK   96  A    between atoms: _244  and  _245
REMARK   97  A    between atoms: _244  and  _247
REMARK   98  A    between atoms: _250  and  _252
REMARK   99  A    between atoms: _252  and  _253
REMARK  100  A    between atoms: _252  and  _255
REMARK  101  A    between atoms: _257  and  _259
REMARK  102  A    between atoms: _259  and  _260
REMARK  103  A    between atoms: _263  and  _265
REMARK  104  A    between atoms: _265  and  _266
REMARK  105  A    between atoms: _265  and  _268
REMARK  106  A    between atoms: _268  and  _269
REMARK  107  A    between atoms: _269  and  _270
REMARK  108  A    between atoms: _275  and  _277
REMARK  109  A    between atoms: _277  and  _278
REMARK  110  A    between atoms: _277  and  _280
REMARK  111  A    between atoms: _280  and  _281
REMARK  112  A    between atoms: _286  and  _287
REMARK  113  A    between atoms: _290  and  _291
REMARK  114  A    between atoms: _296  and  _298
REMARK  115  A    between atoms: _298  and  _299
REMARK  116  A    between atoms: _298  and  _301
REMARK  117  A    between atoms: _301  and  _302
REMARK  118  A    between atoms: _302  and  _303
REMARK  119  A    between atoms: _305  and  _307
REMARK  120  A    between atoms: _307  and  _308
REMARK  121  A    between atoms: _311  and  _313
REMARK  122  A    between atoms: _313  and  _314
REMARK  123  A    between atoms: _313  and  _316
REMARK  124  A    between atoms: _316  and  _317
REMARK  125  A    between atoms: _320  and  _322
REMARK  126  A    between atoms: _322  and  _323
REMARK  127  A    between atoms: _325  and  _327
REMARK  128  A    between atoms: _327  and  _328
REMARK  129  A    between atoms: _327  and  _330
REMARK  130  A    between atoms: _330  and  _331
REMARK  131  A    between atoms: _336  and  _338
REMARK  132  A    between atoms: _338  and  _339
REMARK  133  A    between atoms: _338  and  _341
REMARK  134  A    between atoms: _341  and  _342
REMARK  135  A    between atoms: _345  and  _347
REMARK  136  A    between atoms: _347  and  _348
REMARK  137  A    between atoms: _347  and  _350
REMARK  138  A    between atoms: _350  and  _351
REMARK  139  A    between atoms: _356  and  _357
REMARK  140  A    between atoms: _359  and  _361
REMARK  141  A    between atoms: _361  and  _362
REMARK  142  A    between atoms: _361  and  _364
REMARK  143  A    between atoms: _364  and  _365
REMARK  144  A    between atoms: _368  and  _370
REMARK  145  A    between atoms: _370  and  _371
REMARK  146  A    between atoms: _370  and  _373
REMARK  147  A    between atoms: _373  and  _374
REMARK  148  A    between atoms: _379  and  _380
REMARK  149  A    between atoms: _383  and  _384
REMARK  150  A    between atoms: _389  and  _391
REMARK  151  A    between atoms: _391  and  _392
REMARK  152  A    between atoms: _391  and  _394
REMARK  153  A    between atoms: _394  and  _395
REMARK  154  A    between atoms: _400  and  _401
REMARK  155  A    between atoms: _403  and  _405
REMARK  156  A    between atoms: _405  and  _406
REMARK  157  A    between atoms: _405  and  _408
REMARK  158  A    between atoms: _408  and  _409
REMARK  159  A    between atoms: _409  and  _410
REMARK  160  A    between atoms: _412  and  _414
REMARK  161  A    between atoms: _414  and  _415
REMARK  162  A    between atoms: _414  and  _417
REMARK  163  A    between atoms: _417  and  _418
REMARK  164  A    between atoms: _423  and  _424
REMARK  165  A    between atoms: _426  and  _428
REMARK  166  A    between atoms: _428  and  _429
REMARK  167  A    between atoms: _428  and  _431
REMARK  168  A    between atoms: _431  and  _432
REMARK  169  A    between atoms: _435  and  _437
REMARK  170  A    between atoms: _437  and  _438
REMARK  171  A    between atoms: _441  and  _443
REMARK  172  A    between atoms: _443  and  _444
REMARK  173  A    between atoms: _446  and  _448
REMARK  174  A    between atoms: _448  and  _449
REMARK  175  A    between atoms: _448  and  _451
REMARK  176  A    between atoms: _451  and  _452
REMARK  177  A    between atoms: _457  and  _458
REMARK  178  A    between atoms: _460  and  _462
REMARK  179  A    between atoms: _462  and  _463
REMARK  180  A    between atoms: _462  and  _465
REMARK  181  A    between atoms: _465  and  _466
REMARK  182  A    between atoms: _471  and  _473
REMARK  183  A    between atoms: _473  and  _474
REMARK  184  A    between atoms: _473  and  _476
REMARK  185  A    between atoms: _478  and  _480
REMARK  186  A    between atoms: _480  and  _481
REMARK  187  A    between atoms: _480  and  _483
REMARK  188  A    between atoms: _483  and  _484
REMARK  189  A    between atoms: _484  and  _485
REMARK  190  A    between atoms: _485  and  _486
REMARK  191  A    between atoms: _495  and  _497
REMARK  192  A    between atoms: _497  and  _498
REMARK  193  A    between atoms: _501  and  _503
REMARK  194  A    between atoms: _503  and  _504
REMARK  195  A    between atoms: _507  and  _509
REMARK  196  A    between atoms: _509  and  _510
REMARK  197  A    between atoms: _509  and  _512
REMARK  198  A    between atoms: _512  and  _513
REMARK  199  A    between atoms: _523  and  _525
REMARK  200  A    between atoms: _525  and  _526
REMARK  201  A    between atoms: _525  and  _528
REMARK  202  A    between atoms: _528  and  _529
REMARK  203  A    between atoms: _532  and  _534
REMARK  204  A    between atoms: _534  and  _535
REMARK  205  A    between atoms: _534  and  _537
REMARK  206  A    between atoms: _537  and  _538
REMARK  207  A    between atoms: _538  and  _539
REMARK  208  A    between atoms: _542  and  _544
REMARK  209  A    between atoms: _544  and  _545
REMARK  210  A    between atoms: _544  and  _547
REMARK  211  A    between atoms: _547  and  _548
REMARK  212  A    between atoms: _551  and  _553
REMARK  213  A    between atoms: _553  and  _554
REMARK  214  A    between atoms: _553  and  _556
REMARK  215  A    between atoms: _556  and  _557
REMARK  216  A    between atoms: _557  and  _558
REMARK  217  A    between atoms: _561  and  _563
REMARK  218  A    between atoms: _563  and  _564
REMARK  219  A    between atoms: _563  and  _566
REMARK  220  A    between atoms: _566  and  _567
REMARK  221  A    between atoms: _573  and  _575
REMARK  222  A    between atoms: _575  and  _576
REMARK  223  A    between atoms: _575  and  _578
REMARK  224  A    between atoms: _578  and  _579
REMARK  225  A    between atoms: _579  and  _580
REMARK  226  A    between atoms: _583  and  _585
REMARK  227  A    between atoms: _585  and  _586
REMARK  228  A    between atoms: _585  and  _588
REMARK  229  A    between atoms: _591  and  _593
REMARK  230  A    between atoms: _593  and  _594
REMARK  231  A    between atoms: _593  and  _596
REMARK                            x       y       z     vdW  Elec       q    Type
REMARK                         _______ _______ _______ _____ _____    ______ ____
ROOT
ATOM      1  O   HOH     1      23.200   8.240  11.898  0.00  0.00    +0.000 OA
ENDROOT
TORSDOF 0
REMARK  Name = ../refined-set-2016/4x5z/4x5z_pocket.pdb
REMARK  231 active torsions:
REMARK  status: ('A' for Active; 'I' for Inactive)
REMARK    1  A    between atoms: _1  and  _3
REMARK    2  A    between atoms: _3  and  _4
REMARK    3  A    between atoms: _3  and  _6
REMARK    4  A    between atoms: _6  and  _7
REMARK    5  A    between atoms: _10  and  _12
REMARK    6  A    between atoms: _12  and  _13
REMARK    7  A    between atoms: _12  and  _15
REMARK    8  A    between atoms: _15  and  _16
REMARK    9  A    between atoms: _18  and  _20
REMARK   10  A    between atoms: _20  and  _21
REMARK   11  A    between atoms: _20  and  _23
REMARK   12  A    between atoms: _23  and  _24
REMARK   13  A    between atoms: _26  and  _28
REMARK   14  A    between atoms: _28  and  _29
REMARK   15  A    between atoms: _31  and  _33
REMARK   16  A    between atoms: _33  and  _34
REMARK   17  A    between atoms: _37  and  _39
REMARK   18  A    between atoms: _39  and  _40
REMARK   19  A    between atoms: _39  and  _42
REMARK   20  A    between atoms: _42  and  _43
REMARK   21  A    between atoms: _49  and  _51
REMARK   22  A    between atoms: _51  and  _52
REMARK   23  A    between atoms: _51  and  _54
REMARK   24  A    between atoms: _54  and  _55
REMARK   25  A    between atoms: _58  and  _60
REMARK   26  A    between atoms: _60  and  _61
REMARK   27  A    between atoms: _64  and  _66
REMARK   28  A    between atoms: _66  and  _67
REMARK   29  A    between atoms: _66  and  _69
REMARK   30  A    between atoms: _69  and  _70
REMARK   31  A    between atoms: _73  and  _75
REMARK   32  A    between atoms: _75  and  _76
REMARK   33  A    between atoms: _75  and  _78
REMARK   34  A    between atoms: _78  and  _79
REMARK   35  A    between atoms: _81  and  _83
REMARK   36  A    between atoms: _83  and  _84
REMARK   37  A    between atoms: _83  and  _86
REMARK   38  A    between atoms: _86  and  _87
REMARK   39  A    between atoms: _87  and  _88
REMARK   40  A    between atoms: _91  and  _93
REMARK   41  A    between atoms: _93  and  _94
REMARK   42  A    between atoms: _93  and  _96
REMARK   43  A    between atoms: _96  and  _97
REMARK   44  A    between atoms: _100  and  _102
REMARK   45  A    between atoms: _102  and  _103
REMARK   46  A    between atoms: _102  and  _105
REMARK   47  A    between atoms: _105  and  _106
REMARK   48  A    between atoms: _111  and  _113
REMARK   49  A    between atoms: _113  and  _114
REMARK   50  A    between atoms: _117  and  _119
REMARK   51  A    between atoms: _119  and  _120
REMARK   52  A    between atoms: _119  and  _122
REMARK   53  A    between atoms: _122  and  _123
REMARK   54  A    between atoms: _133  and  _135
REMARK   55  A    between atoms: _135  and  _136
REMARK   56  A    between atoms: _135  and  _138
REMARK   57  A    between atoms: _138  and  _139
REMARK   58  A    between atoms: _142  and  _144
REMARK   59  A    between atoms: _144  and  _145
REMARK   60  A    between atoms: _144  and  _147
REMARK   61  A    between atoms: _147  and  _148
REMARK   62  A    between atoms: _158  and  _160
REMARK   63  A    between atoms: _160  and  _161
REMARK   64  A    between atoms: _160  and  _163
REMARK   65  A    between atoms: _163  and  _164
REMARK   66  A    between atoms: _169  and  _171
REMARK   67  A    between atoms: _171  and  _172
REMARK   68  A    between atoms: _174  and  _176
REMARK   69  A    between atoms: _176  and  _177
REMARK   70  A    between atoms: _176  and  _179
REMARK   71  A    between atoms: _179  and  _180
REMARK   72  A    between atoms: _190  and  _192
REMARK   73  A    between atoms: _192  and  _193
REMARK   74  A    between atoms: _192  and  _195
REMARK   75  A    between atoms: _195  and  _196
REMARK   76  A    between atoms: _199  and  _201
REMARK   77  A    between atoms: _201  and  _202
REMARK   78  A    between atoms: _201  and  _204
REMARK   79  A    between atoms: _204  and  _205
REMARK   80  A    between atoms: _205  and  _206
REMARK   81  A    between atoms: _208  and  _210
REMARK   82  A    between atoms: _210  and  _211
REMARK   83  A    between atoms: _210  and  _213
REMARK   84  A    between atoms: _215  and  _217
REMARK   85  A    between atoms: _217  and  _218
REMARK   86  A    between atoms: _221  and  _223
REMARK   87  A    between atoms: _223  and  _224
REMARK   88  A    between atoms: _223  and  _226
REMARK   89  A    between atoms: _226  and  _227
REMARK   90  A    between atoms: _233  and  _235
REMARK   91  A    between atoms: _235  and  _236
REMARK   92  A    between atoms: _235  and  _238
REMARK   93  A    between atoms: _238  and  _239
REMARK   94  A    between atoms: _239  and  _240
REMARK   95  A    between atoms: _242  and  _244
REMARK   96  A    between atoms: _244  and  _245
REMARK   97  A    between atoms: _244  and  _247
REMARK   98  A    between atoms: _250  and  _252
REMARK   99  A    between atoms: _252  and  _253
REMARK  100  A    between atoms: _252  and  _255
REMARK  101  A    between atoms: _257  and  _259
REMARK  102  A    between atoms: _259  and  _260
REMARK  103  A    between atoms: _263  and  _265
REMARK  104  A    between atoms: _265  and  _266
REMARK  105  A    between atoms: _265  and  _268
REMARK  106  A    between atoms: _268  and  _269
REMARK  107  A    between atoms: _269  and  _270
REMARK  108  A    between atoms: _275  and  _277
REMARK  109  A    between atoms: _277  and  _278
REMARK  110  A    between atoms: _277  and  _280
REMARK  111  A    between atoms: _280  and  _281
REMARK  112  A    between atoms: _286  and  _287
REMARK  113  A    between atoms: _290  and  _291
REMARK  114  A    between atoms: _296  and  _298
REMARK  115  A    between atoms: _298  and  _299
REMARK  116  A    between atoms: _298  and  _301
REMARK  117  A    between atoms: _301  and  _302
REMARK  118  A    between atoms: _302  and  _303
REMARK  119  A    between atoms: _305  and  _307
REMARK  120  A    between atoms: _307  and  _308
REMARK  121  A    between atoms: _311  and  _313
REMARK  122  A    between atoms: _313  and  _314
REMARK  123  A    between atoms: _313  and  _316
REMARK  124  A    between atoms: _316  and  _317
REMARK  125  A    between atoms: _320  and  _322
REMARK  126  A    between atoms: _322  and  _323
REMARK  127  A    between atoms: _325  and  _327
REMARK  128  A    between atoms: _327  and  _328
REMARK  129  A    between atoms: _327  and  _330
REMARK  130  A    between atoms: _330  and  _331
REMARK  131  A    between atoms: _336  and  _338
REMARK  132  A    between atoms: _338  and  _339
REMARK  133  A    between atoms: _338  and  _341
REMARK  134  A    between atoms: _341  and  _342
REMARK  135  A    between atoms: _345  and  _347
REMARK  136  A    between atoms: _347  and  _348
REMARK  137  A    between atoms: _347  and  _350
REMARK  138  A    between atoms: _350  and  _351
REMARK  139  A    between atoms: _356  and  _357
REMARK  140  A    between atoms: _359  and  _361
REMARK  141  A    between atoms: _361  and  _362
REMARK  142  A    between atoms: _361  and  _364
REMARK  143  A    between atoms: _364  and  _365
REMARK  144  A    between atoms: _368  and  _370
REMARK  145  A    between atoms: _370  and  _371
REMARK  146  A    between atoms: _370  and  _373
REMARK  147  A    between atoms: _373  and  _374
REMARK  148  A    between atoms: _379  and  _380
REMARK  149  A    between atoms: _383  and  _384
REMARK  150  A    between atoms: _389  and  _391
REMARK  151  A    between atoms: _391  and  _392
REMARK  152  A    between atoms: _391  and  _394
REMARK  153  A    between atoms: _394  and  _395
REMARK  154  A    between atoms: _400  and  _401
REMARK  155  A    between atoms: _403  and  _405
REMARK  156  A    between atoms: _405  and  _406
REMARK  157  A    between atoms: _405  and  _408
REMARK  158  A    between atoms: _408  and  _409
REMARK  159  A    between atoms: _409  and  _410
REMARK  160  A    between atoms: _412  and  _414
REMARK  161  A    between atoms: _414  and  _415
REMARK  162  A    between atoms: _414  and  _417
REMARK  163  A    between atoms: _417  and  _418
REMARK  164  A    between atoms: _423  and  _424
REMARK  165  A    between atoms: _426  and  _428
REMARK  166  A    between atoms: _428  and  _429
REMARK  167  A    between atoms: _428  and  _431
REMARK  168  A    between atoms: _431  and  _432
REMARK  169  A    between atoms: _435  and  _437
REMARK  170  A    between atoms: _437  and  _438
REMARK  171  A    between atoms: _441  and  _443
REMARK  172  A    between atoms: _443  and  _444
REMARK  173  A    between atoms: _446  and  _448
REMARK  174  A    between atoms: _448  and  _449
REMARK  175  A    between atoms: _448  and  _451
REMARK  176  A    between atoms: _451  and  _452
REMARK  177  A    between atoms: _457  and  _458
REMARK  178  A    between atoms: _460  and  _462
REMARK  179  A    between atoms: _462  and  _463
REMARK  180  A    between atoms: _462  and  _465
REMARK  181  A    between atoms: _465  and  _466
REMARK  182  A    between atoms: _471  and  _473
REMARK  183  A    between atoms: _473  and  _474
REMARK  184  A    between atoms: _473  and  _476
REMARK  185  A    between atoms: _478  and  _480
REMARK  186  A    between atoms: _480  and  _481
REMARK  187  A    between atoms: _480  and  _483
REMARK  188  A    between atoms: _483  and  _484
REMARK  189  A    between atoms: _484  and  _485
REMARK  190  A    between atoms: _485  and  _486
REMARK  191  A    between atoms: _495  and  _497
REMARK  192  A    between atoms: _497  and  _498
REMARK  193  A    between atoms: _501  and  _503
REMARK  194  A    between atoms: _503  and  _504
REMARK  195  A    between atoms: _507  and  _509
REMARK  196  A    between atoms: _509  and  _510
REMARK  197  A    between atoms: _509  and  _512
REMARK  198  A    between atoms: _512  and  _513
REMARK  199  A    between atoms: _523  and  _525
REMARK  200  A    between atoms: _525  and  _526
REMARK  201  A    between atoms: _525  and  _528
REMARK  202  A    between atoms: _528  and  _529
REMARK  203  A    between atoms: _532  and  _534
REMARK  204  A    between atoms: _534  and  _535
REMARK  205  A    between atoms: _534  and  _537
REMARK  206  A    between atoms: _537  and  _538
REMARK  207  A    between atoms: _538  and  _539
REMARK  208  A    between atoms: _542  and  _544
REMARK  209  A    between atoms: _544  and  _545
REMARK  210  A    between atoms: _544  and  _547
REMARK  211  A    between atoms: _547  and  _548
REMARK  212  A    between atoms: _551  and  _553
REMARK  213  A    between atoms: _553  and  _554
REMARK  214  A    between atoms: _553  and  _556
REMARK  215  A    between atoms: _556  and  _557
REMARK  216  A    between atoms: _557  and  _558
REMARK  217  A    between atoms: _561  and  _563
REMARK  218  A    between atoms: _563  and  _564
REMARK  219  A    between atoms: _563  and  _566
REMARK  220  A    between atoms: _566  and  _567
REMARK  221  A    between atoms: _573  and  _575
REMARK  222  A    between atoms: _575  and  _576
REMARK  223  A    between atoms: _575  and  _578
REMARK  224  A    between atoms: _578  and  _579
REMARK  225  A    between atoms: _579  and  _580
REMARK  226  A    between atoms: _583  and  _585
REMARK  227  A    between atoms: _585  and  _586
REMARK  228  A    between atoms: _585  and  _588
REMARK  229  A    between atoms: _591  and  _593
REMARK  230  A    between atoms: _593  and  _594
REMARK  231  A    between atoms: _593  and  _596
REMARK                            x       y       z     vdW  Elec       q    Type
REMARK                         _______ _______ _______ _____ _____    ______ ____
ROOT
ATOM      1  O   HOH     1      18.437  11.520  19.472  0.00  0.00    +0.000 OA
ENDROOT
TORSDOF 0
REMARK  Name = ../refined-set-2016/4x5z/4x5z_pocket.pdb
REMARK  231 active torsions:
REMARK  status: ('A' for Active; 'I' for Inactive)
REMARK    1  A    between atoms: _1  and  _3
REMARK    2  A    between atoms: _3  and  _4
REMARK    3  A    between atoms: _3  and  _6
REMARK    4  A    between atoms: _6  and  _7
REMARK    5  A    between atoms: _10  and  _12
REMARK    6  A    between atoms: _12  and  _13
REMARK    7  A    between atoms: _12  and  _15
REMARK    8  A    between atoms: _15  and  _16
REMARK    9  A    between atoms: _18  and  _20
REMARK   10  A    between atoms: _20  and  _21
REMARK   11  A    between atoms: _20  and  _23
REMARK   12  A    between atoms: _23  and  _24
REMARK   13  A    between atoms: _26  and  _28
REMARK   14  A    between atoms: _28  and  _29
REMARK   15  A    between atoms: _31  and  _33
REMARK   16  A    between atoms: _33  and  _34
REMARK   17  A    between atoms: _37  and  _39
REMARK   18  A    between atoms: _39  and  _40
REMARK   19  A    between atoms: _39  and  _42
REMARK   20  A    between atoms: _42  and  _43
REMARK   21  A    between atoms: _49  and  _51
REMARK   22  A    between atoms: _51  and  _52
REMARK   23  A    between atoms: _51  and  _54
REMARK   24  A    between atoms: _54  and  _55
REMARK   25  A    between atoms: _58  and  _60
REMARK   26  A    between atoms: _60  and  _61
REMARK   27  A    between atoms: _64  and  _66
REMARK   28  A    between atoms: _66  and  _67
REMARK   29  A    between atoms: _66  and  _69
REMARK   30  A    between atoms: _69  and  _70
REMARK   31  A    between atoms: _73  and  _75
REMARK   32  A    between atoms: _75  and  _76
REMARK   33  A    between atoms: _75  and  _78
REMARK   34  A    between atoms: _78  and  _79
REMARK   35  A    between atoms: _81  and  _83
REMARK   36  A    between atoms: _83  and  _84
REMARK   37  A    between atoms: _83  and  _86
REMARK   38  A    between atoms: _86  and  _87
REMARK   39  A    between atoms: _87  and  _88
REMARK   40  A    between atoms: _91  and  _93
REMARK   41  A    between atoms: _93  and  _94
REMARK   42  A    between atoms: _93  and  _96
REMARK   43  A    between atoms: _96  and  _97
REMARK   44  A    between atoms: _100  and  _102
REMARK   45  A    between atoms: _102  and  _103
REMARK   46  A    between atoms: _102  and  _105
REMARK   47  A    between atoms: _105  and  _106
REMARK   48  A    between atoms: _111  and  _113
REMARK   49  A    between atoms: _113  and  _114
REMARK   50  A    between atoms: _117  and  _119
REMARK   51  A    between atoms: _119  and  _120
REMARK   52  A    between atoms: _119  and  _122
REMARK   53  A    between atoms: _122  and  _123
REMARK   54  A    between atoms: _133  and  _135
REMARK   55  A    between atoms: _135  and  _136
REMARK   56  A    between atoms: _135  and  _138
REMARK   57  A    between atoms: _138  and  _139
REMARK   58  A    between atoms: _142  and  _144
REMARK   59  A    between atoms: _144  and  _145
REMARK   60  A    between atoms: _144  and  _147
REMARK   61  A    between atoms: _147  and  _148
REMARK   62  A    between atoms: _158  and  _160
REMARK   63  A    between atoms: _160  and  _161
REMARK   64  A    between atoms: _160  and  _163
REMARK   65  A    between atoms: _163  and  _164
REMARK   66  A    between atoms: _169  and  _171
REMARK   67  A    between atoms: _171  and  _172
REMARK   68  A    between atoms: _174  and  _176
REMARK   69  A    between atoms: _176  and  _177
REMARK   70  A    between atoms: _176  and  _179
REMARK   71  A    between atoms: _179  and  _180
REMARK   72  A    between atoms: _190  and  _192
REMARK   73  A    between atoms: _192  and  _193
REMARK   74  A    between atoms: _192  and  _195
REMARK   75  A    between atoms: _195  and  _196
REMARK   76  A    between atoms: _199  and  _201
REMARK   77  A    between atoms: _201  and  _202
REMARK   78  A    between atoms: _201  and  _204
REMARK   79  A    between atoms: _204  and  _205
REMARK   80  A    between atoms: _205  and  _206
REMARK   81  A    between atoms: _208  and  _210
REMARK   82  A    between atoms: _210  and  _211
REMARK   83  A    between atoms: _210  and  _213
REMARK   84  A    between atoms: _215  and  _217
REMARK   85  A    between atoms: _217  and  _218
REMARK   86  A    between atoms: _221  and  _223
REMARK   87  A    between atoms: _223  and  _224
REMARK   88  A    between atoms: _223  and  _226
REMARK   89  A    between atoms: _226  and  _227
REMARK   90  A    between atoms: _233  and  _235
REMARK   91  A    between atoms: _235  and  _236
REMARK   92  A    between atoms: _235  and  _238
REMARK   93  A    between atoms: _238  and  _239
REMARK   94  A    between atoms: _239  and  _240
REMARK   95  A    between atoms: _242  and  _244
REMARK   96  A    between atoms: _244  and  _245
REMARK   97  A    between atoms: _244  and  _247
REMARK   98  A    between atoms: _250  and  _252
REMARK   99  A    between atoms: _252  and  _253
REMARK  100  A    between atoms: _252  and  _255
REMARK  101  A    between atoms: _257  and  _259
REMARK  102  A    between atoms: _259  and  _260
REMARK  103  A    between atoms: _263  and  _265
REMARK  104  A    between atoms: _265  and  _266
REMARK  105  A    between atoms: _265  and  _268
REMARK  106  A    between atoms: _268  and  _269
REMARK  107  A    between atoms: _269  and  _270
REMARK  108  A    between atoms: _275  and  _277
REMARK  109  A    between atoms: _277  and  _278
REMARK  110  A    between atoms: _277  and  _280
REMARK  111  A    between atoms: _280  and  _281
REMARK  112  A    between atoms: _286  and  _287
REMARK  113  A    between atoms: _290  and  _291
REMARK  114  A    between atoms: _296  and  _298
REMARK  115  A    between atoms: _298  and  _299
REMARK  116  A    between atoms: _298  and  _301
REMARK  117  A    between atoms: _301  and  _302
REMARK  118  A    between atoms: _302  and  _303
REMARK  119  A    between atoms: _305  and  _307
REMARK  120  A    between atoms: _307  and  _308
REMARK  121  A    between atoms: _311  and  _313
REMARK  122  A    between atoms: _313  and  _314
REMARK  123  A    between atoms: _313  and  _316
REMARK  124  A    between atoms: _316  and  _317
REMARK  125  A    between atoms: _320  and  _322
REMARK  126  A    between atoms: _322  and  _323
REMARK  127  A    between atoms: _325  and  _327
REMARK  128  A    between atoms: _327  and  _328
REMARK  129  A    between atoms: _327  and  _330
REMARK  130  A    between atoms: _330  and  _331
REMARK  131  A    between atoms: _336  and  _338
REMARK  132  A    between atoms: _338  and  _339
REMARK  133  A    between atoms: _338  and  _341
REMARK  134  A    between atoms: _341  and  _342
REMARK  135  A    between atoms: _345  and  _347
REMARK  136  A    between atoms: _347  and  _348
REMARK  137  A    between atoms: _347  and  _350
REMARK  138  A    between atoms: _350  and  _351
REMARK  139  A    between atoms: _356  and  _357
REMARK  140  A    between atoms: _359  and  _361
REMARK  141  A    between atoms: _361  and  _362
REMARK  142  A    between atoms: _361  and  _364
REMARK  143  A    between atoms: _364  and  _365
REMARK  144  A    between atoms: _368  and  _370
REMARK  145  A    between atoms: _370  and  _371
REMARK  146  A    between atoms: _370  and  _373
REMARK  147  A    between atoms: _373  and  _374
REMARK  148  A    between atoms: _379  and  _380
REMARK  149  A    between atoms: _383  and  _384
REMARK  150  A    between atoms: _389  and  _391
REMARK  151  A    between atoms: _391  and  _392
REMARK  152  A    between atoms: _391  and  _394
REMARK  153  A    between atoms: _394  and  _395
REMARK  154  A    between atoms: _400  and  _401
REMARK  155  A    between atoms: _403  and  _405
REMARK  156  A    between atoms: _405  and  _406
REMARK  157  A    between atoms: _405  and  _408
REMARK  158  A    between atoms: _408  and  _409
REMARK  159  A    between atoms: _409  and  _410
REMARK  160  A    between atoms: _412  and  _414
REMARK  161  A    between atoms: _414  and  _415
REMARK  162  A    between atoms: _414  and  _417
REMARK  163  A    between atoms: _417  and  _418
REMARK  164  A    between atoms: _423  and  _424
REMARK  165  A    between atoms: _426  and  _428
REMARK  166  A    between atoms: _428  and  _429
REMARK  167  A    between atoms: _428  and  _431
REMARK  168  A    between atoms: _431  and  _432
REMARK  169  A    between atoms: _435  and  _437
REMARK  170  A    between atoms: _437  and  _438
REMARK  171  A    between atoms: _441  and  _443
REMARK  172  A    between atoms: _443  and  _444
REMARK  173  A    between atoms: _446  and  _448
REMARK  174  A    between atoms: _448  and  _449
REMARK  175  A    between atoms: _448  and  _451
REMARK  176  A    between atoms: _451  and  _452
REMARK  177  A    between atoms: _457  and  _458
REMARK  178  A    between atoms: _460  and  _462
REMARK  179  A    between atoms: _462  and  _463
REMARK  180  A    between atoms: _462  and  _465
REMARK  181  A    between atoms: _465  and  _466
REMARK  182  A    between atoms: _471  and  _473
REMARK  183  A    between atoms: _473  and  _474
REMARK  184  A    between atoms: _473  and  _476
REMARK  185  A    between atoms: _478  and  _480
REMARK  186  A    between atoms: _480  and  _481
REMARK  187  A    between atoms: _480  and  _483
REMARK  188  A    between atoms: _483  and  _484
REMARK  189  A    between atoms: _484  and  _485
REMARK  190  A    between atoms: _485  and  _486
REMARK  191  A    between atoms: _495  and  _497
REMARK  192  A    between atoms: _497  and  _498
REMARK  193  A    between atoms: _501  and  _503
REMARK  194  A    between atoms: _503  and  _504
REMARK  195  A    between atoms: _507  and  _509
REMARK  196  A    between atoms: _509  and  _510
REMARK  197  A    between atoms: _509  and  _512
REMARK  198  A    between atoms: _512  and  _513
REMARK  199  A    between atoms: _523  and  _525
REMARK  200  A    between atoms: _525  and  _526
REMARK  201  A    between atoms: _525  and  _528
REMARK  202  A    between atoms: _528  and  _529
REMARK  203  A    between atoms: _532  and  _534
REMARK  204  A    between atoms: _534  and  _535
REMARK  205  A    between atoms: _534  and  _537
REMARK  206  A    between atoms: _537  and  _538
REMARK  207  A    between atoms: _538  and  _539
REMARK  208  A    between atoms: _542  and  _544
REMARK  209  A    between atoms: _544  and  _545
REMARK  210  A    between atoms: _544  and  _547
REMARK  211  A    between atoms: _547  and  _548
REMARK  212  A    between atoms: _551  and  _553
REMARK  213  A    between atoms: _553  and  _554
REMARK  214  A    between atoms: _553  and  _556
REMARK  215  A    between atoms: _556  and  _557
REMARK  216  A    between atoms: _557  and  _558
REMARK  217  A    between atoms: _561  and  _563
REMARK  218  A    between atoms: _563  and  _564
REMARK  219  A    between atoms: _563  and  _566
REMARK  220  A    between atoms: _566  and  _567
REMARK  221  A    between atoms: _573  and  _575
REMARK  222  A    between atoms: _575  and  _576
REMARK  223  A    between atoms: _575  and  _578
REMARK  224  A    between atoms: _578  and  _579
REMARK  225  A    between atoms: _579  and  _580
REMARK  226  A    between atoms: _583  and  _585
REMARK  227  A    between atoms: _585  and  _586
REMARK  228  A    between atoms: _585  and  _588
REMARK  229  A    between atoms: _591  and  _593
REMARK  230  A    between atoms: _593  and  _594
REMARK  231  A    between atoms: _593  and  _596
REMARK                            x       y       z     vdW  Elec       q    Type
REMARK                         _______ _______ _______ _____ _____    ______ ____
ROOT
ATOM      1  O   HOH     1      16.909   7.952   5.092  0.00  0.00    +0.000 OA
ENDROOT
TORSDOF 0
REMARK  Name = ../refined-set-2016/4x5z/4x5z_pocket.pdb
REMARK  231 active torsions:
REMARK  status: ('A' for Active; 'I' for Inactive)
REMARK    1  A    between atoms: _1  and  _3
REMARK    2  A    between atoms: _3  and  _4
REMARK    3  A    between atoms: _3  and  _6
REMARK    4  A    between atoms: _6  and  _7
REMARK    5  A    between atoms: _10  and  _12
REMARK    6  A    between atoms: _12  and  _13
REMARK    7  A    between atoms: _12  and  _15
REMARK    8  A    between atoms: _15  and  _16
REMARK    9  A    between atoms: _18  and  _20
REMARK   10  A    between atoms: _20  and  _21
REMARK   11  A    between atoms: _20  and  _23
REMARK   12  A    between atoms: _23  and  _24
REMARK   13  A    between atoms: _26  and  _28
REMARK   14  A    between atoms: _28  and  _29
REMARK   15  A    between atoms: _31  and  _33
REMARK   16  A    between atoms: _33  and  _34
REMARK   17  A    between atoms: _37  and  _39
REMARK   18  A    between atoms: _39  and  _40
REMARK   19  A    between atoms: _39  and  _42
REMARK   20  A    between atoms: _42  and  _43
REMARK   21  A    between atoms: _49  and  _51
REMARK   22  A    between atoms: _51  and  _52
REMARK   23  A    between atoms: _51  and  _54
REMARK   24  A    between atoms: _54  and  _55
REMARK   25  A    between atoms: _58  and  _60
REMARK   26  A    between atoms: _60  and  _61
REMARK   27  A    between atoms: _64  and  _66
REMARK   28  A    between atoms: _66  and  _67
REMARK   29  A    between atoms: _66  and  _69
REMARK   30  A    between atoms: _69  and  _70
REMARK   31  A    between atoms: _73  and  _75
REMARK   32  A    between atoms: _75  and  _76
REMARK   33  A    between atoms: _75  and  _78
REMARK   34  A    between atoms: _78  and  _79
REMARK   35  A    between atoms: _81  and  _83
REMARK   36  A    between atoms: _83  and  _84
REMARK   37  A    between atoms: _83  and  _86
REMARK   38  A    between atoms: _86  and  _87
REMARK   39  A    between atoms: _87  and  _88
REMARK   40  A    between atoms: _91  and  _93
REMARK   41  A    between atoms: _93  and  _94
REMARK   42  A    between atoms: _93  and  _96
REMARK   43  A    between atoms: _96  and  _97
REMARK   44  A    between atoms: _100  and  _102
REMARK   45  A    between atoms: _102  and  _103
REMARK   46  A    between atoms: _102  and  _105
REMARK   47  A    between atoms: _105  and  _106
REMARK   48  A    between atoms: _111  and  _113
REMARK   49  A    between atoms: _113  and  _114
REMARK   50  A    between atoms: _117  and  _119
REMARK   51  A    between atoms: _119  and  _120
REMARK   52  A    between atoms: _119  and  _122
REMARK   53  A    between atoms: _122  and  _123
REMARK   54  A    between atoms: _133  and  _135
REMARK   55  A    between atoms: _135  and  _136
REMARK   56  A    between atoms: _135  and  _138
REMARK   57  A    between atoms: _138  and  _139
REMARK   58  A    between atoms: _142  and  _144
REMARK   59  A    between atoms: _144  and  _145
REMARK   60  A    between atoms: _144  and  _147
REMARK   61  A    between atoms: _147  and  _148
REMARK   62  A    between atoms: _158  and  _160
REMARK   63  A    between atoms: _160  and  _161
REMARK   64  A    between atoms: _160  and  _163
REMARK   65  A    between atoms: _163  and  _164
REMARK   66  A    between atoms: _169  and  _171
REMARK   67  A    between atoms: _171  and  _172
REMARK   68  A    between atoms: _174  and  _176
REMARK   69  A    between atoms: _176  and  _177
REMARK   70  A    between atoms: _176  and  _179
REMARK   71  A    between atoms: _179  and  _180
REMARK   72  A    between atoms: _190  and  _192
REMARK   73  A    between atoms: _192  and  _193
REMARK   74  A    between atoms: _192  and  _195
REMARK   75  A    between atoms: _195  and  _196
REMARK   76  A    between atoms: _199  and  _201
REMARK   77  A    between atoms: _201  and  _202
REMARK   78  A    between atoms: _201  and  _204
REMARK   79  A    between atoms: _204  and  _205
REMARK   80  A    between atoms: _205  and  _206
REMARK   81  A    between atoms: _208  and  _210
REMARK   82  A    between atoms: _210  and  _211
REMARK   83  A    between atoms: _210  and  _213
REMARK   84  A    between atoms: _215  and  _217
REMARK   85  A    between atoms: _217  and  _218
REMARK   86  A    between atoms: _221  and  _223
REMARK   87  A    between atoms: _223  and  _224
REMARK   88  A    between atoms: _223  and  _226
REMARK   89  A    between atoms: _226  and  _227
REMARK   90  A    between atoms: _233  and  _235
REMARK   91  A    between atoms: _235  and  _236
REMARK   92  A    between atoms: _235  and  _238
REMARK   93  A    between atoms: _238  and  _239
REMARK   94  A    between atoms: _239  and  _240
REMARK   95  A    between atoms: _242  and  _244
REMARK   96  A    between atoms: _244  and  _245
REMARK   97  A    between atoms: _244  and  _247
REMARK   98  A    between atoms: _250  and  _252
REMARK   99  A    between atoms: _252  and  _253
REMARK  100  A    between atoms: _252  and  _255
REMARK  101  A    between atoms: _257  and  _259
REMARK  102  A    between atoms: _259  and  _260
REMARK  103  A    between atoms: _263  and  _265
REMARK  104  A    between atoms: _265  and  _266
REMARK  105  A    between atoms: _265  and  _268
REMARK  106  A    between atoms: _268  and  _269
REMARK  107  A    between atoms: _269  and  _270
REMARK  108  A    between atoms: _275  and  _277
REMARK  109  A    between atoms: _277  and  _278
REMARK  110  A    between atoms: _277  and  _280
REMARK  111  A    between atoms: _280  and  _281
REMARK  112  A    between atoms: _286  and  _287
REMARK  113  A    between atoms: _290  and  _291
REMARK  114  A    between atoms: _296  and  _298
REMARK  115  A    between atoms: _298  and  _299
REMARK  116  A    between atoms: _298  and  _301
REMARK  117  A    between atoms: _301  and  _302
REMARK  118  A    between atoms: _302  and  _303
REMARK  119  A    between atoms: _305  and  _307
REMARK  120  A    between atoms: _307  and  _308
REMARK  121  A    between atoms: _311  and  _313
REMARK  122  A    between atoms: _313  and  _314
REMARK  123  A    between atoms: _313  and  _316
REMARK  124  A    between atoms: _316  and  _317
REMARK  125  A    between atoms: _320  and  _322
REMARK  126  A    between atoms: _322  and  _323
REMARK  127  A    between atoms: _325  and  _327
REMARK  128  A    between atoms: _327  and  _328
REMARK  129  A    between atoms: _327  and  _330
REMARK  130  A    between atoms: _330  and  _331
REMARK  131  A    between atoms: _336  and  _338
REMARK  132  A    between atoms: _338  and  _339
REMARK  133  A    between atoms: _338  and  _341
REMARK  134  A    between atoms: _341  and  _342
REMARK  135  A    between atoms: _345  and  _347
REMARK  136  A    between atoms: _347  and  _348
REMARK  137  A    between atoms: _347  and  _350
REMARK  138  A    between atoms: _350  and  _351
REMARK  139  A    between atoms: _356  and  _357
REMARK  140  A    between atoms: _359  and  _361
REMARK  141  A    between atoms: _361  and  _362
REMARK  142  A    between atoms: _361  and  _364
REMARK  143  A    between atoms: _364  and  _365
REMARK  144  A    between atoms: _368  and  _370
REMARK  145  A    between atoms: _370  and  _371
REMARK  146  A    between atoms: _370  and  _373
REMARK  147  A    between atoms: _373  and  _374
REMARK  148  A    between atoms: _379  and  _380
REMARK  149  A    between atoms: _383  and  _384
REMARK  150  A    between atoms: _389  and  _391
REMARK  151  A    between atoms: _391  and  _392
REMARK  152  A    between atoms: _391  and  _394
REMARK  153  A    between atoms: _394  and  _395
REMARK  154  A    between atoms: _400  and  _401
REMARK  155  A    between atoms: _403  and  _405
REMARK  156  A    between atoms: _405  and  _406
REMARK  157  A    between atoms: _405  and  _408
REMARK  158  A    between atoms: _408  and  _409
REMARK  159  A    between atoms: _409  and  _410
REMARK  160  A    between atoms: _412  and  _414
REMARK  161  A    between atoms: _414  and  _415
REMARK  162  A    between atoms: _414  and  _417
REMARK  163  A    between atoms: _417  and  _418
REMARK  164  A    between atoms: _423  and  _424
REMARK  165  A    between atoms: _426  and  _428
REMARK  166  A    between atoms: _428  and  _429
REMARK  167  A    between atoms: _428  and  _431
REMARK  168  A    between atoms: _431  and  _432
REMARK  169  A    between atoms: _435  and  _437
REMARK  170  A    between atoms: _437  and  _438
REMARK  171  A    between atoms: _441  and  _443
REMARK  172  A    between atoms: _443  and  _444
REMARK  173  A    between atoms: _446  and  _448
REMARK  174  A    between atoms: _448  and  _449
REMARK  175  A    between atoms: _448  and  _451
REMARK  176  A    between atoms: _451  and  _452
REMARK  177  A    between atoms: _457  and  _458
REMARK  178  A    between atoms: _460  and  _462
REMARK  179  A    between atoms: _462  and  _463
REMARK  180  A    between atoms: _462  and  _465
REMARK  181  A    between atoms: _465  and  _466
REMARK  182  A    between atoms: _471  and  _473
REMARK  183  A    between atoms: _473  and  _474
REMARK  184  A    between atoms: _473  and  _476
REMARK  185  A    between atoms: _478  and  _480
REMARK  186  A    between atoms: _480  and  _481
REMARK  187  A    between atoms: _480  and  _483
REMARK  188  A    between atoms: _483  and  _484
REMARK  189  A    between atoms: _484  and  _485
REMARK  190  A    between atoms: _485  and  _486
REMARK  191  A    between atoms: _495  and  _497
REMARK  192  A    between atoms: _497  and  _498
REMARK  193  A    between atoms: _501  and  _503
REMARK  194  A    between atoms: _503  and  _504
REMARK  195  A    between atoms: _507  and  _509
REMARK  196  A    between atoms: _509  and  _510
REMARK  197  A    between atoms: _509  and  _512
REMARK  198  A    between atoms: _512  and  _513
REMARK  199  A    between atoms: _523  and  _525
REMARK  200  A    between atoms: _525  and  _526
REMARK  201  A    between atoms: _525  and  _528
REMARK  202  A    between atoms: _528  and  _529
REMARK  203  A    between atoms: _532  and  _534
REMARK  204  A    between atoms: _534  and  _535
REMARK  205  A    between atoms: _534  and  _537
REMARK  206  A    between atoms: _537  and  _538
REMARK  207  A    between atoms: _538  and  _539
REMARK  208  A    between atoms: _542  and  _544
REMARK  209  A    between atoms: _544  and  _545
REMARK  210  A    between atoms: _544  and  _547
REMARK  211  A    between atoms: _547  and  _548
REMARK  212  A    between atoms: _551  and  _553
REMARK  213  A    between atoms: _553  and  _554
REMARK  214  A    between atoms: _553  and  _556
REMARK  215  A    between atoms: _556  and  _557
REMARK  216  A    between atoms: _557  and  _558
REMARK  217  A    between atoms: _561  and  _563
REMARK  218  A    between atoms: _563  and  _564
REMARK  219  A    between atoms: _563  and  _566
REMARK  220  A    between atoms: _566  and  _567
REMARK  221  A    between atoms: _573  and  _575
REMARK  222  A    between atoms: _575  and  _576
REMARK  223  A    between atoms: _575  and  _578
REMARK  224  A    between atoms: _578  and  _579
REMARK  225  A    between atoms: _579  and  _580
REMARK  226  A    between atoms: _583  and  _585
REMARK  227  A    between atoms: _585  and  _586
REMARK  228  A    between atoms: _585  and  _588
REMARK  229  A    between atoms: _591  and  _593
REMARK  230  A    between atoms: _593  and  _594
REMARK  231  A    between atoms: _593  and  _596
REMARK                            x       y       z     vdW  Elec       q    Type
REMARK                         _______ _______ _______ _____ _____    ______ ____
ROOT
ATOM      1  O   HOH     1      10.212   7.365  17.513  0.00  0.00    +0.000 OA
ENDROOT
TORSDOF 0
REMARK  Name = ../refined-set-2016/4x5z/4x5z_pocket.pdb
REMARK  231 active torsions:
REMARK  status: ('A' for Active; 'I' for Inactive)
REMARK    1  A    between atoms: _1  and  _3
REMARK    2  A    between atoms: _3  and  _4
REMARK    3  A    between atoms: _3  and  _6
REMARK    4  A    between atoms: _6  and  _7
REMARK    5  A    between atoms: _10  and  _12
REMARK    6  A    between atoms: _12  and  _13
REMARK    7  A    between atoms: _12  and  _15
REMARK    8  A    between atoms: _15  and  _16
REMARK    9  A    between atoms: _18  and  _20
REMARK   10  A    between atoms: _20  and  _21
REMARK   11  A    between atoms: _20  and  _23
REMARK   12  A    between atoms: _23  and  _24
REMARK   13  A    between atoms: _26  and  _28
REMARK   14  A    between atoms: _28  and  _29
REMARK   15  A    between atoms: _31  and  _33
REMARK   16  A    between atoms: _33  and  _34
REMARK   17  A    between atoms: _37  and  _39
REMARK   18  A    between atoms: _39  and  _40
REMARK   19  A    between atoms: _39  and  _42
REMARK   20  A    between atoms: _42  and  _43
REMARK   21  A    between atoms: _49  and  _51
REMARK   22  A    between atoms: _51  and  _52
REMARK   23  A    between atoms: _51  and  _54
REMARK   24  A    between atoms: _54  and  _55
REMARK   25  A    between atoms: _58  and  _60
REMARK   26  A    between atoms: _60  and  _61
REMARK   27  A    between atoms: _64  and  _66
REMARK   28  A    between atoms: _66  and  _67
REMARK   29  A    between atoms: _66  and  _69
REMARK   30  A    between atoms: _69  and  _70
REMARK   31  A    between atoms: _73  and  _75
REMARK   32  A    between atoms: _75  and  _76
REMARK   33  A    between atoms: _75  and  _78
REMARK   34  A    between atoms: _78  and  _79
REMARK   35  A    between atoms: _81  and  _83
REMARK   36  A    between atoms: _83  and  _84
REMARK   37  A    between atoms: _83  and  _86
REMARK   38  A    between atoms: _86  and  _87
REMARK   39  A    between atoms: _87  and  _88
REMARK   40  A    between atoms: _91  and  _93
REMARK   41  A    between atoms: _93  and  _94
REMARK   42  A    between atoms: _93  and  _96
REMARK   43  A    between atoms: _96  and  _97
REMARK   44  A    between atoms: _100  and  _102
REMARK   45  A    between atoms: _102  and  _103
REMARK   46  A    between atoms: _102  and  _105
REMARK   47  A    between atoms: _105  and  _106
REMARK   48  A    between atoms: _111  and  _113
REMARK   49  A    between atoms: _113  and  _114
REMARK   50  A    between atoms: _117  and  _119
REMARK   51  A    between atoms: _119  and  _120
REMARK   52  A    between atoms: _119  and  _122
REMARK   53  A    between atoms: _122  and  _123
REMARK   54  A    between atoms: _133  and  _135
REMARK   55  A    between atoms: _135  and  _136
REMARK   56  A    between atoms: _135  and  _138
REMARK   57  A    between atoms: _138  and  _139
REMARK   58  A    between atoms: _142  and  _144
REMARK   59  A    between atoms: _144  and  _145
REMARK   60  A    between atoms: _144  and  _147
REMARK   61  A    between atoms: _147  and  _148
REMARK   62  A    between atoms: _158  and  _160
REMARK   63  A    between atoms: _160  and  _161
REMARK   64  A    between atoms: _160  and  _163
REMARK   65  A    between atoms: _163  and  _164
REMARK   66  A    between atoms: _169  and  _171
REMARK   67  A    between atoms: _171  and  _172
REMARK   68  A    between atoms: _174  and  _176
REMARK   69  A    between atoms: _176  and  _177
REMARK   70  A    between atoms: _176  and  _179
REMARK   71  A    between atoms: _179  and  _180
REMARK   72  A    between atoms: _190  and  _192
REMARK   73  A    between atoms: _192  and  _193
REMARK   74  A    between atoms: _192  and  _195
REMARK   75  A    between atoms: _195  and  _196
REMARK   76  A    between atoms: _199  and  _201
REMARK   77  A    between atoms: _201  and  _202
REMARK   78  A    between atoms: _201  and  _204
REMARK   79  A    between atoms: _204  and  _205
REMARK   80  A    between atoms: _205  and  _206
REMARK   81  A    between atoms: _208  and  _210
REMARK   82  A    between atoms: _210  and  _211
REMARK   83  A    between atoms: _210  and  _213
REMARK   84  A    between atoms: _215  and  _217
REMARK   85  A    between atoms: _217  and  _218
REMARK   86  A    between atoms: _221  and  _223
REMARK   87  A    between atoms: _223  and  _224
REMARK   88  A    between atoms: _223  and  _226
REMARK   89  A    between atoms: _226  and  _227
REMARK   90  A    between atoms: _233  and  _235
REMARK   91  A    between atoms: _235  and  _236
REMARK   92  A    between atoms: _235  and  _238
REMARK   93  A    between atoms: _238  and  _239
REMARK   94  A    between atoms: _239  and  _240
REMARK   95  A    between atoms: _242  and  _244
REMARK   96  A    between atoms: _244  and  _245
REMARK   97  A    between atoms: _244  and  _247
REMARK   98  A    between atoms: _250  and  _252
REMARK   99  A    between atoms: _252  and  _253
REMARK  100  A    between atoms: _252  and  _255
REMARK  101  A    between atoms: _257  and  _259
REMARK  102  A    between atoms: _259  and  _260
REMARK  103  A    between atoms: _263  and  _265
REMARK  104  A    between atoms: _265  and  _266
REMARK  105  A    between atoms: _265  and  _268
REMARK  106  A    between atoms: _268  and  _269
REMARK  107  A    between atoms: _269  and  _270
REMARK  108  A    between atoms: _275  and  _277
REMARK  109  A    between atoms: _277  and  _278
REMARK  110  A    between atoms: _277  and  _280
REMARK  111  A    between atoms: _280  and  _281
REMARK  112  A    between atoms: _286  and  _287
REMARK  113  A    between atoms: _290  and  _291
REMARK  114  A    between atoms: _296  and  _298
REMARK  115  A    between atoms: _298  and  _299
REMARK  116  A    between atoms: _298  and  _301
REMARK  117  A    between atoms: _301  and  _302
REMARK  118  A    between atoms: _302  and  _303
REMARK  119  A    between atoms: _305  and  _307
REMARK  120  A    between atoms: _307  and  _308
REMARK  121  A    between atoms: _311  and  _313
REMARK  122  A    between atoms: _313  and  _314
REMARK  123  A    between atoms: _313  and  _316
REMARK  124  A    between atoms: _316  and  _317
REMARK  125  A    between atoms: _320  and  _322
REMARK  126  A    between atoms: _322  and  _323
REMARK  127  A    between atoms: _325  and  _327
REMARK  128  A    between atoms: _327  and  _328
REMARK  129  A    between atoms: _327  and  _330
REMARK  130  A    between atoms: _330  and  _331
REMARK  131  A    between atoms: _336  and  _338
REMARK  132  A    between atoms: _338  and  _339
REMARK  133  A    between atoms: _338  and  _341
REMARK  134  A    between atoms: _341  and  _342
REMARK  135  A    between atoms: _345  and  _347
REMARK  136  A    between atoms: _347  and  _348
REMARK  137  A    between atoms: _347  and  _350
REMARK  138  A    between atoms: _350  and  _351
REMARK  139  A    between atoms: _356  and  _357
REMARK  140  A    between atoms: _359  and  _361
REMARK  141  A    between atoms: _361  and  _362
REMARK  142  A    between atoms: _361  and  _364
REMARK  143  A    between atoms: _364  and  _365
REMARK  144  A    between atoms: _368  and  _370
REMARK  145  A    between atoms: _370  and  _371
REMARK  146  A    between atoms: _370  and  _373
REMARK  147  A    between atoms: _373  and  _374
REMARK  148  A    between atoms: _379  and  _380
REMARK  149  A    between atoms: _383  and  _384
REMARK  150  A    between atoms: _389  and  _391
REMARK  151  A    between atoms: _391  and  _392
REMARK  152  A    between atoms: _391  and  _394
REMARK  153  A    between atoms: _394  and  _395
REMARK  154  A    between atoms: _400  and  _401
REMARK  155  A    between atoms: _403  and  _405
REMARK  156  A    between atoms: _405  and  _406
REMARK  157  A    between atoms: _405  and  _408
REMARK  158  A    between atoms: _408  and  _409
REMARK  159  A    between atoms: _409  and  _410
REMARK  160  A    between atoms: _412  and  _414
REMARK  161  A    between atoms: _414  and  _415
REMARK  162  A    between atoms: _414  and  _417
REMARK  163  A    between atoms: _417  and  _418
REMARK  164  A    between atoms: _423  and  _424
REMARK  165  A    between atoms: _426  and  _428
REMARK  166  A    between atoms: _428  and  _429
REMARK  167  A    between atoms: _428  and  _431
REMARK  168  A    between atoms: _431  and  _432
REMARK  169  A    between atoms: _435  and  _437
REMARK  170  A    between atoms: _437  and  _438
REMARK  171  A    between atoms: _441  and  _443
REMARK  172  A    between atoms: _443  and  _444
REMARK  173  A    between atoms: _446  and  _448
REMARK  174  A    between atoms: _448  and  _449
REMARK  175  A    between atoms: _448  and  _451
REMARK  176  A    between atoms: _451  and  _452
REMARK  177  A    between atoms: _457  and  _458
REMARK  178  A    between atoms: _460  and  _462
REMARK  179  A    between atoms: _462  and  _463
REMARK  180  A    between atoms: _462  and  _465
REMARK  181  A    between atoms: _465  and  _466
REMARK  182  A    between atoms: _471  and  _473
REMARK  183  A    between atoms: _473  and  _474
REMARK  184  A    between atoms: _473  and  _476
REMARK  185  A    between atoms: _478  and  _480
REMARK  186  A    between atoms: _480  and  _481
REMARK  187  A    between atoms: _480  and  _483
REMARK  188  A    between atoms: _483  and  _484
REMARK  189  A    between atoms: _484  and  _485
REMARK  190  A    between atoms: _485  and  _486
REMARK  191  A    between atoms: _495  and  _497
REMARK  192  A    between atoms: _497  and  _498
REMARK  193  A    between atoms: _501  and  _503
REMARK  194  A    between atoms: _503  and  _504
REMARK  195  A    between atoms: _507  and  _509
REMARK  196  A    between atoms: _509  and  _510
REMARK  197  A    between atoms: _509  and  _512
REMARK  198  A    between atoms: _512  and  _513
REMARK  199  A    between atoms: _523  and  _525
REMARK  200  A    between atoms: _525  and  _526
REMARK  201  A    between atoms: _525  and  _528
REMARK  202  A    between atoms: _528  and  _529
REMARK  203  A    between atoms: _532  and  _534
REMARK  204  A    between atoms: _534  and  _535
REMARK  205  A    between atoms: _534  and  _537
REMARK  206  A    between atoms: _537  and  _538
REMARK  207  A    between atoms: _538  and  _539
REMARK  208  A    between atoms: _542  and  _544
REMARK  209  A    between atoms: _544  and  _545
REMARK  210  A    between atoms: _544  and  _547
REMARK  211  A    between atoms: _547  and  _548
REMARK  212  A    between atoms: _551  and  _553
REMARK  213  A    between atoms: _553  and  _554
REMARK  214  A    between atoms: _553  and  _556
REMARK  215  A    between atoms: _556  and  _557
REMARK  216  A    between atoms: _557  and  _558
REMARK  217  A    between atoms: _561  and  _563
REMARK  218  A    between atoms: _563  and  _564
REMARK  219  A    between atoms: _563  and  _566
REMARK  220  A    between atoms: _566  and  _567
REMARK  221  A    between atoms: _573  and  _575
REMARK  222  A    between atoms: _575  and  _576
REMARK  223  A    between atoms: _575  and  _578
REMARK  224  A    between atoms: _578  and  _579
REMARK  225  A    between atoms: _579  and  _580
REMARK  226  A    between atoms: _583  and  _585
REMARK  227  A    between atoms: _585  and  _586
REMARK  228  A    between atoms: _585  and  _588
REMARK  229  A    between atoms: _591  and  _593
REMARK  230  A    between atoms: _593  and  _594
REMARK  231  A    between atoms: _593  and  _596
REMARK                            x       y       z     vdW  Elec       q    Type
REMARK                         _______ _______ _______ _____ _____    ______ ____
ROOT
ATOM      1  O   HOH     1      23.886  11.552  10.748  0.00  0.00    +0.000 OA
ENDROOT
TORSDOF 0
REMARK  Name = ../refined-set-2016/4x5z/4x5z_pocket.pdb
REMARK  231 active torsions:
REMARK  status: ('A' for Active; 'I' for Inactive)
REMARK    1  A    between atoms: _1  and  _3
REMARK    2  A    between atoms: _3  and  _4
REMARK    3  A    between atoms: _3  and  _6
REMARK    4  A    between atoms: _6  and  _7
REMARK    5  A    between atoms: _10  and  _12
REMARK    6  A    between atoms: _12  and  _13
REMARK    7  A    between atoms: _12  and  _15
REMARK    8  A    between atoms: _15  and  _16
REMARK    9  A    between atoms: _18  and  _20
REMARK   10  A    between atoms: _20  and  _21
REMARK   11  A    between atoms: _20  and  _23
REMARK   12  A    between atoms: _23  and  _24
REMARK   13  A    between atoms: _26  and  _28
REMARK   14  A    between atoms: _28  and  _29
REMARK   15  A    between atoms: _31  and  _33
REMARK   16  A    between atoms: _33  and  _34
REMARK   17  A    between atoms: _37  and  _39
REMARK   18  A    between atoms: _39  and  _40
REMARK   19  A    between atoms: _39  and  _42
REMARK   20  A    between atoms: _42  and  _43
REMARK   21  A    between atoms: _49  and  _51
REMARK   22  A    between atoms: _51  and  _52
REMARK   23  A    between atoms: _51  and  _54
REMARK   24  A    between atoms: _54  and  _55
REMARK   25  A    between atoms: _58  and  _60
REMARK   26  A    between atoms: _60  and  _61
REMARK   27  A    between atoms: _64  and  _66
REMARK   28  A    between atoms: _66  and  _67
REMARK   29  A    between atoms: _66  and  _69
REMARK   30  A    between atoms: _69  and  _70
REMARK   31  A    between atoms: _73  and  _75
REMARK   32  A    between atoms: _75  and  _76
REMARK   33  A    between atoms: _75  and  _78
REMARK   34  A    between atoms: _78  and  _79
REMARK   35  A    between atoms: _81  and  _83
REMARK   36  A    between atoms: _83  and  _84
REMARK   37  A    between atoms: _83  and  _86
REMARK   38  A    between atoms: _86  and  _87
REMARK   39  A    between atoms: _87  and  _88
REMARK   40  A    between atoms: _91  and  _93
REMARK   41  A    between atoms: _93  and  _94
REMARK   42  A    between atoms: _93  and  _96
REMARK   43  A    between atoms: _96  and  _97
REMARK   44  A    between atoms: _100  and  _102
REMARK   45  A    between atoms: _102  and  _103
REMARK   46  A    between atoms: _102  and  _105
REMARK   47  A    between atoms: _105  and  _106
REMARK   48  A    between atoms: _111  and  _113
REMARK   49  A    between atoms: _113  and  _114
REMARK   50  A    between atoms: _117  and  _119
REMARK   51  A    between atoms: _119  and  _120
REMARK   52  A    between atoms: _119  and  _122
REMARK   53  A    between atoms: _122  and  _123
REMARK   54  A    between atoms: _133  and  _135
REMARK   55  A    between atoms: _135  and  _136
REMARK   56  A    between atoms: _135  and  _138
REMARK   57  A    between atoms: _138  and  _139
REMARK   58  A    between atoms: _142  and  _144
REMARK   59  A    between atoms: _144  and  _145
REMARK   60  A    between atoms: _144  and  _147
REMARK   61  A    between atoms: _147  and  _148
REMARK   62  A    between atoms: _158  and  _160
REMARK   63  A    between atoms: _160  and  _161
REMARK   64  A    between atoms: _160  and  _163
REMARK   65  A    between atoms: _163  and  _164
REMARK   66  A    between atoms: _169  and  _171
REMARK   67  A    between atoms: _171  and  _172
REMARK   68  A    between atoms: _174  and  _176
REMARK   69  A    between atoms: _176  and  _177
REMARK   70  A    between atoms: _176  and  _179
REMARK   71  A    between atoms: _179  and  _180
REMARK   72  A    between atoms: _190  and  _192
REMARK   73  A    between atoms: _192  and  _193
REMARK   74  A    between atoms: _192  and  _195
REMARK   75  A    between atoms: _195  and  _196
REMARK   76  A    between atoms: _199  and  _201
REMARK   77  A    between atoms: _201  and  _202
REMARK   78  A    between atoms: _201  and  _204
REMARK   79  A    between atoms: _204  and  _205
REMARK   80  A    between atoms: _205  and  _206
REMARK   81  A    between atoms: _208  and  _210
REMARK   82  A    between atoms: _210  and  _211
REMARK   83  A    between atoms: _210  and  _213
REMARK   84  A    between atoms: _215  and  _217
REMARK   85  A    between atoms: _217  and  _218
REMARK   86  A    between atoms: _221  and  _223
REMARK   87  A    between atoms: _223  and  _224
REMARK   88  A    between atoms: _223  and  _226
REMARK   89  A    between atoms: _226  and  _227
REMARK   90  A    between atoms: _233  and  _235
REMARK   91  A    between atoms: _235  and  _236
REMARK   92  A    between atoms: _235  and  _238
REMARK   93  A    between atoms: _238  and  _239
REMARK   94  A    between atoms: _239  and  _240
REMARK   95  A    between atoms: _242  and  _244
REMARK   96  A    between atoms: _244  and  _245
REMARK   97  A    between atoms: _244  and  _247
REMARK   98  A    between atoms: _250  and  _252
REMARK   99  A    between atoms: _252  and  _253
REMARK  100  A    between atoms: _252  and  _255
REMARK  101  A    between atoms: _257  and  _259
REMARK  102  A    between atoms: _259  and  _260
REMARK  103  A    between atoms: _263  and  _265
REMARK  104  A    between atoms: _265  and  _266
REMARK  105  A    between atoms: _265  and  _268
REMARK  106  A    between atoms: _268  and  _269
REMARK  107  A    between atoms: _269  and  _270
REMARK  108  A    between atoms: _275  and  _277
REMARK  109  A    between atoms: _277  and  _278
REMARK  110  A    between atoms: _277  and  _280
REMARK  111  A    between atoms: _280  and  _281
REMARK  112  A    between atoms: _286  and  _287
REMARK  113  A    between atoms: _290  and  _291
REMARK  114  A    between atoms: _296  and  _298
REMARK  115  A    between atoms: _298  and  _299
REMARK  116  A    between atoms: _298  and  _301
REMARK  117  A    between atoms: _301  and  _302
REMARK  118  A    between atoms: _302  and  _303
REMARK  119  A    between atoms: _305  and  _307
REMARK  120  A    between atoms: _307  and  _308
REMARK  121  A    between atoms: _311  and  _313
REMARK  122  A    between atoms: _313  and  _314
REMARK  123  A    between atoms: _313  and  _316
REMARK  124  A    between atoms: _316  and  _317
REMARK  125  A    between atoms: _320  and  _322
REMARK  126  A    between atoms: _322  and  _323
REMARK  127  A    between atoms: _325  and  _327
REMARK  128  A    between atoms: _327  and  _328
REMARK  129  A    between atoms: _327  and  _330
REMARK  130  A    between atoms: _330  and  _331
REMARK  131  A    between atoms: _336  and  _338
REMARK  132  A    between atoms: _338  and  _339
REMARK  133  A    between atoms: _338  and  _341
REMARK  134  A    between atoms: _341  and  _342
REMARK  135  A    between atoms: _345  and  _347
REMARK  136  A    between atoms: _347  and  _348
REMARK  137  A    between atoms: _347  and  _350
REMARK  138  A    between atoms: _350  and  _351
REMARK  139  A    between atoms: _356  and  _357
REMARK  140  A    between atoms: _359  and  _361
REMARK  141  A    between atoms: _361  and  _362
REMARK  142  A    between atoms: _361  and  _364
REMARK  143  A    between atoms: _364  and  _365
REMARK  144  A    between atoms: _368  and  _370
REMARK  145  A    between atoms: _370  and  _371
REMARK  146  A    between atoms: _370  and  _373
REMARK  147  A    between atoms: _373  and  _374
REMARK  148  A    between atoms: _379  and  _380
REMARK  149  A    between atoms: _383  and  _384
REMARK  150  A    between atoms: _389  and  _391
REMARK  151  A    between atoms: _391  and  _392
REMARK  152  A    between atoms: _391  and  _394
REMARK  153  A    between atoms: _394  and  _395
REMARK  154  A    between atoms: _400  and  _401
REMARK  155  A    between atoms: _403  and  _405
REMARK  156  A    between atoms: _405  and  _406
REMARK  157  A    between atoms: _405  and  _408
REMARK  158  A    between atoms: _408  and  _409
REMARK  159  A    between atoms: _409  and  _410
REMARK  160  A    between atoms: _412  and  _414
REMARK  161  A    between atoms: _414  and  _415
REMARK  162  A    between atoms: _414  and  _417
REMARK  163  A    between atoms: _417  and  _418
REMARK  164  A    between atoms: _423  and  _424
REMARK  165  A    between atoms: _426  and  _428
REMARK  166  A    between atoms: _428  and  _429
REMARK  167  A    between atoms: _428  and  _431
REMARK  168  A    between atoms: _431  and  _432
REMARK  169  A    between atoms: _435  and  _437
REMARK  170  A    between atoms: _437  and  _438
REMARK  171  A    between atoms: _441  and  _443
REMARK  172  A    between atoms: _443  and  _444
REMARK  173  A    between atoms: _446  and  _448
REMARK  174  A    between atoms: _448  and  _449
REMARK  175  A    between atoms: _448  and  _451
REMARK  176  A    between atoms: _451  and  _452
REMARK  177  A    between atoms: _457  and  _458
REMARK  178  A    between atoms: _460  and  _462
REMARK  179  A    between atoms: _462  and  _463
REMARK  180  A    between atoms: _462  and  _465
REMARK  181  A    between atoms: _465  and  _466
REMARK  182  A    between atoms: _471  and  _473
REMARK  183  A    between atoms: _473  and  _474
REMARK  184  A    between atoms: _473  and  _476
REMARK  185  A    between atoms: _478  and  _480
REMARK  186  A    between atoms: _480  and  _481
REMARK  187  A    between atoms: _480  and  _483
REMARK  188  A    between atoms: _483  and  _484
REMARK  189  A    between atoms: _484  and  _485
REMARK  190  A    between atoms: _485  and  _486
REMARK  191  A    between atoms: _495  and  _497
REMARK  192  A    between atoms: _497  and  _498
REMARK  193  A    between atoms: _501  and  _503
REMARK  194  A    between atoms: _503  and  _504
REMARK  195  A    between atoms: _507  and  _509
REMARK  196  A    between atoms: _509  and  _510
REMARK  197  A    between atoms: _509  and  _512
REMARK  198  A    between atoms: _512  and  _513
REMARK  199  A    between atoms: _523  and  _525
REMARK  200  A    between atoms: _525  and  _526
REMARK  201  A    between atoms: _525  and  _528
REMARK  202  A    between atoms: _528  and  _529
REMARK  203  A    between atoms: _532  and  _534
REMARK  204  A    between atoms: _534  and  _535
REMARK  205  A    between atoms: _534  and  _537
REMARK  206  A    between atoms: _537  and  _538
REMARK  207  A    between atoms: _538  and  _539
REMARK  208  A    between atoms: _542  and  _544
REMARK  209  A    between atoms: _544  and  _545
REMARK  210  A    between atoms: _544  and  _547
REMARK  211  A    between atoms: _547  and  _548
REMARK  212  A    between atoms: _551  and  _553
REMARK  213  A    between atoms: _553  and  _554
REMARK  214  A    between atoms: _553  and  _556
REMARK  215  A    between atoms: _556  and  _557
REMARK  216  A    between atoms: _557  and  _558
REMARK  217  A    between atoms: _561  and  _563
REMARK  218  A    between atoms: _563  and  _564
REMARK  219  A    between atoms: _563  and  _566
REMARK  220  A    between atoms: _566  and  _567
REMARK  221  A    between atoms: _573  and  _575
REMARK  222  A    between atoms: _575  and  _576
REMARK  223  A    between atoms: _575  and  _578
REMARK  224  A    between atoms: _578  and  _579
REMARK  225  A    between atoms: _579  and  _580
REMARK  226  A    between atoms: _583  and  _585
REMARK  227  A    between atoms: _585  and  _586
REMARK  228  A    between atoms: _585  and  _588
REMARK  229  A    between atoms: _591  and  _593
REMARK  230  A    between atoms: _593  and  _594
REMARK  231  A    between atoms: _593  and  _596
REMARK                            x       y       z     vdW  Elec       q    Type
REMARK                         _______ _______ _______ _____ _____    ______ ____
ROOT
ATOM      1  O   HOH     1      10.611   9.661  19.006  0.00  0.00    +0.000 OA
ENDROOT
TORSDOF 0
REMARK  Name = ../refined-set-2016/4x5z/4x5z_pocket.pdb
REMARK  231 active torsions:
REMARK  status: ('A' for Active; 'I' for Inactive)
REMARK    1  A    between atoms: _1  and  _3
REMARK    2  A    between atoms: _3  and  _4
REMARK    3  A    between atoms: _3  and  _6
REMARK    4  A    between atoms: _6  and  _7
REMARK    5  A    between atoms: _10  and  _12
REMARK    6  A    between atoms: _12  and  _13
REMARK    7  A    between atoms: _12  and  _15
REMARK    8  A    between atoms: _15  and  _16
REMARK    9  A    between atoms: _18  and  _20
REMARK   10  A    between atoms: _20  and  _21
REMARK   11  A    between atoms: _20  and  _23
REMARK   12  A    between atoms: _23  and  _24
REMARK   13  A    between atoms: _26  and  _28
REMARK   14  A    between atoms: _28  and  _29
REMARK   15  A    between atoms: _31  and  _33
REMARK   16  A    between atoms: _33  and  _34
REMARK   17  A    between atoms: _37  and  _39
REMARK   18  A    between atoms: _39  and  _40
REMARK   19  A    between atoms: _39  and  _42
REMARK   20  A    between atoms: _42  and  _43
REMARK   21  A    between atoms: _49  and  _51
REMARK   22  A    between atoms: _51  and  _52
REMARK   23  A    between atoms: _51  and  _54
REMARK   24  A    between atoms: _54  and  _55
REMARK   25  A    between atoms: _58  and  _60
REMARK   26  A    between atoms: _60  and  _61
REMARK   27  A    between atoms: _64  and  _66
REMARK   28  A    between atoms: _66  and  _67
REMARK   29  A    between atoms: _66  and  _69
REMARK   30  A    between atoms: _69  and  _70
REMARK   31  A    between atoms: _73  and  _75
REMARK   32  A    between atoms: _75  and  _76
REMARK   33  A    between atoms: _75  and  _78
REMARK   34  A    between atoms: _78  and  _79
REMARK   35  A    between atoms: _81  and  _83
REMARK   36  A    between atoms: _83  and  _84
REMARK   37  A    between atoms: _83  and  _86
REMARK   38  A    between atoms: _86  and  _87
REMARK   39  A    between atoms: _87  and  _88
REMARK   40  A    between atoms: _91  and  _93
REMARK   41  A    between atoms: _93  and  _94
REMARK   42  A    between atoms: _93  and  _96
REMARK   43  A    between atoms: _96  and  _97
REMARK   44  A    between atoms: _100  and  _102
REMARK   45  A    between atoms: _102  and  _103
REMARK   46  A    between atoms: _102  and  _105
REMARK   47  A    between atoms: _105  and  _106
REMARK   48  A    between atoms: _111  and  _113
REMARK   49  A    between atoms: _113  and  _114
REMARK   50  A    between atoms: _117  and  _119
REMARK   51  A    between atoms: _119  and  _120
REMARK   52  A    between atoms: _119  and  _122
REMARK   53  A    between atoms: _122  and  _123
REMARK   54  A    between atoms: _133  and  _135
REMARK   55  A    between atoms: _135  and  _136
REMARK   56  A    between atoms: _135  and  _138
REMARK   57  A    between atoms: _138  and  _139
REMARK   58  A    between atoms: _142  and  _144
REMARK   59  A    between atoms: _144  and  _145
REMARK   60  A    between atoms: _144  and  _147
REMARK   61  A    between atoms: _147  and  _148
REMARK   62  A    between atoms: _158  and  _160
REMARK   63  A    between atoms: _160  and  _161
REMARK   64  A    between atoms: _160  and  _163
REMARK   65  A    between atoms: _163  and  _164
REMARK   66  A    between atoms: _169  and  _171
REMARK   67  A    between atoms: _171  and  _172
REMARK   68  A    between atoms: _174  and  _176
REMARK   69  A    between atoms: _176  and  _177
REMARK   70  A    between atoms: _176  and  _179
REMARK   71  A    between atoms: _179  and  _180
REMARK   72  A    between atoms: _190  and  _192
REMARK   73  A    between atoms: _192  and  _193
REMARK   74  A    between atoms: _192  and  _195
REMARK   75  A    between atoms: _195  and  _196
REMARK   76  A    between atoms: _199  and  _201
REMARK   77  A    between atoms: _201  and  _202
REMARK   78  A    between atoms: _201  and  _204
REMARK   79  A    between atoms: _204  and  _205
REMARK   80  A    between atoms: _205  and  _206
REMARK   81  A    between atoms: _208  and  _210
REMARK   82  A    between atoms: _210  and  _211
REMARK   83  A    between atoms: _210  and  _213
REMARK   84  A    between atoms: _215  and  _217
REMARK   85  A    between atoms: _217  and  _218
REMARK   86  A    between atoms: _221  and  _223
REMARK   87  A    between atoms: _223  and  _224
REMARK   88  A    between atoms: _223  and  _226
REMARK   89  A    between atoms: _226  and  _227
REMARK   90  A    between atoms: _233  and  _235
REMARK   91  A    between atoms: _235  and  _236
REMARK   92  A    between atoms: _235  and  _238
REMARK   93  A    between atoms: _238  and  _239
REMARK   94  A    between atoms: _239  and  _240
REMARK   95  A    between atoms: _242  and  _244
REMARK   96  A    between atoms: _244  and  _245
REMARK   97  A    between atoms: _244  and  _247
REMARK   98  A    between atoms: _250  and  _252
REMARK   99  A    between atoms: _252  and  _253
REMARK  100  A    between atoms: _252  and  _255
REMARK  101  A    between atoms: _257  and  _259
REMARK  102  A    between atoms: _259  and  _260
REMARK  103  A    between atoms: _263  and  _265
REMARK  104  A    between atoms: _265  and  _266
REMARK  105  A    between atoms: _265  and  _268
REMARK  106  A    between atoms: _268  and  _269
REMARK  107  A    between atoms: _269  and  _270
REMARK  108  A    between atoms: _275  and  _277
REMARK  109  A    between atoms: _277  and  _278
REMARK  110  A    between atoms: _277  and  _280
REMARK  111  A    between atoms: _280  and  _281
REMARK  112  A    between atoms: _286  and  _287
REMARK  113  A    between atoms: _290  and  _291
REMARK  114  A    between atoms: _296  and  _298
REMARK  115  A    between atoms: _298  and  _299
REMARK  116  A    between atoms: _298  and  _301
REMARK  117  A    between atoms: _301  and  _302
REMARK  118  A    between atoms: _302  and  _303
REMARK  119  A    between atoms: _305  and  _307
REMARK  120  A    between atoms: _307  and  _308
REMARK  121  A    between atoms: _311  and  _313
REMARK  122  A    between atoms: _313  and  _314
REMARK  123  A    between atoms: _313  and  _316
REMARK  124  A    between atoms: _316  and  _317
REMARK  125  A    between atoms: _320  and  _322
REMARK  126  A    between atoms: _322  and  _323
REMARK  127  A    between atoms: _325  and  _327
REMARK  128  A    between atoms: _327  and  _328
REMARK  129  A    between atoms: _327  and  _330
REMARK  130  A    between atoms: _330  and  _331
REMARK  131  A    between atoms: _336  and  _338
REMARK  132  A    between atoms: _338  and  _339
REMARK  133  A    between atoms: _338  and  _341
REMARK  134  A    between atoms: _341  and  _342
REMARK  135  A    between atoms: _345  and  _347
REMARK  136  A    between atoms: _347  and  _348
REMARK  137  A    between atoms: _347  and  _350
REMARK  138  A    between atoms: _350  and  _351
REMARK  139  A    between atoms: _356  and  _357
REMARK  140  A    between atoms: _359  and  _361
REMARK  141  A    between atoms: _361  and  _362
REMARK  142  A    between atoms: _361  and  _364
REMARK  143  A    between atoms: _364  and  _365
REMARK  144  A    between atoms: _368  and  _370
REMARK  145  A    between atoms: _370  and  _371
REMARK  146  A    between atoms: _370  and  _373
REMARK  147  A    between atoms: _373  and  _374
REMARK  148  A    between atoms: _379  and  _380
REMARK  149  A    between atoms: _383  and  _384
REMARK  150  A    between atoms: _389  and  _391
REMARK  151  A    between atoms: _391  and  _392
REMARK  152  A    between atoms: _391  and  _394
REMARK  153  A    between atoms: _394  and  _395
REMARK  154  A    between atoms: _400  and  _401
REMARK  155  A    between atoms: _403  and  _405
REMARK  156  A    between atoms: _405  and  _406
REMARK  157  A    between atoms: _405  and  _408
REMARK  158  A    between atoms: _408  and  _409
REMARK  159  A    between atoms: _409  and  _410
REMARK  160  A    between atoms: _412  and  _414
REMARK  161  A    between atoms: _414  and  _415
REMARK  162  A    between atoms: _414  and  _417
REMARK  163  A    between atoms: _417  and  _418
REMARK  164  A    between atoms: _423  and  _424
REMARK  165  A    between atoms: _426  and  _428
REMARK  166  A    between atoms: _428  and  _429
REMARK  167  A    between atoms: _428  and  _431
REMARK  168  A    between atoms: _431  and  _432
REMARK  169  A    between atoms: _435  and  _437
REMARK  170  A    between atoms: _437  and  _438
REMARK  171  A    between atoms: _441  and  _443
REMARK  172  A    between atoms: _443  and  _444
REMARK  173  A    between atoms: _446  and  _448
REMARK  174  A    between atoms: _448  and  _449
REMARK  175  A    between atoms: _448  and  _451
REMARK  176  A    between atoms: _451  and  _452
REMARK  177  A    between atoms: _457  and  _458
REMARK  178  A    between atoms: _460  and  _462
REMARK  179  A    between atoms: _462  and  _463
REMARK  180  A    between atoms: _462  and  _465
REMARK  181  A    between atoms: _465  and  _466
REMARK  182  A    between atoms: _471  and  _473
REMARK  183  A    between atoms: _473  and  _474
REMARK  184  A    between atoms: _473  and  _476
REMARK  185  A    between atoms: _478  and  _480
REMARK  186  A    between atoms: _480  and  _481
REMARK  187  A    between atoms: _480  and  _483
REMARK  188  A    between atoms: _483  and  _484
REMARK  189  A    between atoms: _484  and  _485
REMARK  190  A    between atoms: _485  and  _486
REMARK  191  A    between atoms: _495  and  _497
REMARK  192  A    between atoms: _497  and  _498
REMARK  193  A    between atoms: _501  and  _503
REMARK  194  A    between atoms: _503  and  _504
REMARK  195  A    between atoms: _507  and  _509
REMARK  196  A    between atoms: _509  and  _510
REMARK  197  A    between atoms: _509  and  _512
REMARK  198  A    between atoms: _512  and  _513
REMARK  199  A    between atoms: _523  and  _525
REMARK  200  A    between atoms: _525  and  _526
REMARK  201  A    between atoms: _525  and  _528
REMARK  202  A    between atoms: _528  and  _529
REMARK  203  A    between atoms: _532  and  _534
REMARK  204  A    between atoms: _534  and  _535
REMARK  205  A    between atoms: _534  and  _537
REMARK  206  A    between atoms: _537  and  _538
REMARK  207  A    between atoms: _538  and  _539
REMARK  208  A    between atoms: _542  and  _544
REMARK  209  A    between atoms: _544  and  _545
REMARK  210  A    between atoms: _544  and  _547
REMARK  211  A    between atoms: _547  and  _548
REMARK  212  A    between atoms: _551  and  _553
REMARK  213  A    between atoms: _553  and  _554
REMARK  214  A    between atoms: _553  and  _556
REMARK  215  A    between atoms: _556  and  _557
REMARK  216  A    between atoms: _557  and  _558
REMARK  217  A    between atoms: _561  and  _563
REMARK  218  A    between atoms: _563  and  _564
REMARK  219  A    between atoms: _563  and  _566
REMARK  220  A    between atoms: _566  and  _567
REMARK  221  A    between atoms: _573  and  _575
REMARK  222  A    between atoms: _575  and  _576
REMARK  223  A    between atoms: _575  and  _578
REMARK  224  A    between atoms: _578  and  _579
REMARK  225  A    between atoms: _579  and  _580
REMARK  226  A    between atoms: _583  and  _585
REMARK  227  A    between atoms: _585  and  _586
REMARK  228  A    between atoms: _585  and  _588
REMARK  229  A    between atoms: _591  and  _593
REMARK  230  A    between atoms: _593  and  _594
REMARK  231  A    between atoms: _593  and  _596
REMARK                            x       y       z     vdW  Elec       q    Type
REMARK                         _______ _______ _______ _____ _____    ______ ____
ROOT
ATOM      1  O   HOH     1      18.763  11.263  11.585  0.00  0.00    +0.000 OA
ENDROOT
TORSDOF 0
REMARK  Name = ../refined-set-2016/4x5z/4x5z_pocket.pdb
REMARK  231 active torsions:
REMARK  status: ('A' for Active; 'I' for Inactive)
REMARK    1  A    between atoms: _1  and  _3
REMARK    2  A    between atoms: _3  and  _4
REMARK    3  A    between atoms: _3  and  _6
REMARK    4  A    between atoms: _6  and  _7
REMARK    5  A    between atoms: _10  and  _12
REMARK    6  A    between atoms: _12  and  _13
REMARK    7  A    between atoms: _12  and  _15
REMARK    8  A    between atoms: _15  and  _16
REMARK    9  A    between atoms: _18  and  _20
REMARK   10  A    between atoms: _20  and  _21
REMARK   11  A    between atoms: _20  and  _23
REMARK   12  A    between atoms: _23  and  _24
REMARK   13  A    between atoms: _26  and  _28
REMARK   14  A    between atoms: _28  and  _29
REMARK   15  A    between atoms: _31  and  _33
REMARK   16  A    between atoms: _33  and  _34
REMARK   17  A    between atoms: _37  and  _39
REMARK   18  A    between atoms: _39  and  _40
REMARK   19  A    between atoms: _39  and  _42
REMARK   20  A    between atoms: _42  and  _43
REMARK   21  A    between atoms: _49  and  _51
REMARK   22  A    between atoms: _51  and  _52
REMARK   23  A    between atoms: _51  and  _54
REMARK   24  A    between atoms: _54  and  _55
REMARK   25  A    between atoms: _58  and  _60
REMARK   26  A    between atoms: _60  and  _61
REMARK   27  A    between atoms: _64  and  _66
REMARK   28  A    between atoms: _66  and  _67
REMARK   29  A    between atoms: _66  and  _69
REMARK   30  A    between atoms: _69  and  _70
REMARK   31  A    between atoms: _73  and  _75
REMARK   32  A    between atoms: _75  and  _76
REMARK   33  A    between atoms: _75  and  _78
REMARK   34  A    between atoms: _78  and  _79
REMARK   35  A    between atoms: _81  and  _83
REMARK   36  A    between atoms: _83  and  _84
REMARK   37  A    between atoms: _83  and  _86
REMARK   38  A    between atoms: _86  and  _87
REMARK   39  A    between atoms: _87  and  _88
REMARK   40  A    between atoms: _91  and  _93
REMARK   41  A    between atoms: _93  and  _94
REMARK   42  A    between atoms: _93  and  _96
REMARK   43  A    between atoms: _96  and  _97
REMARK   44  A    between atoms: _100  and  _102
REMARK   45  A    between atoms: _102  and  _103
REMARK   46  A    between atoms: _102  and  _105
REMARK   47  A    between atoms: _105  and  _106
REMARK   48  A    between atoms: _111  and  _113
REMARK   49  A    between atoms: _113  and  _114
REMARK   50  A    between atoms: _117  and  _119
REMARK   51  A    between atoms: _119  and  _120
REMARK   52  A    between atoms: _119  and  _122
REMARK   53  A    between atoms: _122  and  _123
REMARK   54  A    between atoms: _133  and  _135
REMARK   55  A    between atoms: _135  and  _136
REMARK   56  A    between atoms: _135  and  _138
REMARK   57  A    between atoms: _138  and  _139
REMARK   58  A    between atoms: _142  and  _144
REMARK   59  A    between atoms: _144  and  _145
REMARK   60  A    between atoms: _144  and  _147
REMARK   61  A    between atoms: _147  and  _148
REMARK   62  A    between atoms: _158  and  _160
REMARK   63  A    between atoms: _160  and  _161
REMARK   64  A    between atoms: _160  and  _163
REMARK   65  A    between atoms: _163  and  _164
REMARK   66  A    between atoms: _169  and  _171
REMARK   67  A    between atoms: _171  and  _172
REMARK   68  A    between atoms: _174  and  _176
REMARK   69  A    between atoms: _176  and  _177
REMARK   70  A    between atoms: _176  and  _179
REMARK   71  A    between atoms: _179  and  _180
REMARK   72  A    between atoms: _190  and  _192
REMARK   73  A    between atoms: _192  and  _193
REMARK   74  A    between atoms: _192  and  _195
REMARK   75  A    between atoms: _195  and  _196
REMARK   76  A    between atoms: _199  and  _201
REMARK   77  A    between atoms: _201  and  _202
REMARK   78  A    between atoms: _201  and  _204
REMARK   79  A    between atoms: _204  and  _205
REMARK   80  A    between atoms: _205  and  _206
REMARK   81  A    between atoms: _208  and  _210
REMARK   82  A    between atoms: _210  and  _211
REMARK   83  A    between atoms: _210  and  _213
REMARK   84  A    between atoms: _215  and  _217
REMARK   85  A    between atoms: _217  and  _218
REMARK   86  A    between atoms: _221  and  _223
REMARK   87  A    between atoms: _223  and  _224
REMARK   88  A    between atoms: _223  and  _226
REMARK   89  A    between atoms: _226  and  _227
REMARK   90  A    between atoms: _233  and  _235
REMARK   91  A    between atoms: _235  and  _236
REMARK   92  A    between atoms: _235  and  _238
REMARK   93  A    between atoms: _238  and  _239
REMARK   94  A    between atoms: _239  and  _240
REMARK   95  A    between atoms: _242  and  _244
REMARK   96  A    between atoms: _244  and  _245
REMARK   97  A    between atoms: _244  and  _247
REMARK   98  A    between atoms: _250  and  _252
REMARK   99  A    between atoms: _252  and  _253
REMARK  100  A    between atoms: _252  and  _255
REMARK  101  A    between atoms: _257  and  _259
REMARK  102  A    between atoms: _259  and  _260
REMARK  103  A    between atoms: _263  and  _265
REMARK  104  A    between atoms: _265  and  _266
REMARK  105  A    between atoms: _265  and  _268
REMARK  106  A    between atoms: _268  and  _269
REMARK  107  A    between atoms: _269  and  _270
REMARK  108  A    between atoms: _275  and  _277
REMARK  109  A    between atoms: _277  and  _278
REMARK  110  A    between atoms: _277  and  _280
REMARK  111  A    between atoms: _280  and  _281
REMARK  112  A    between atoms: _286  and  _287
REMARK  113  A    between atoms: _290  and  _291
REMARK  114  A    between atoms: _296  and  _298
REMARK  115  A    between atoms: _298  and  _299
REMARK  116  A    between atoms: _298  and  _301
REMARK  117  A    between atoms: _301  and  _302
REMARK  118  A    between atoms: _302  and  _303
REMARK  119  A    between atoms: _305  and  _307
REMARK  120  A    between atoms: _307  and  _308
REMARK  121  A    between atoms: _311  and  _313
REMARK  122  A    between atoms: _313  and  _314
REMARK  123  A    between atoms: _313  and  _316
REMARK  124  A    between atoms: _316  and  _317
REMARK  125  A    between atoms: _320  and  _322
REMARK  126  A    between atoms: _322  and  _323
REMARK  127  A    between atoms: _325  and  _327
REMARK  128  A    between atoms: _327  and  _328
REMARK  129  A    between atoms: _327  and  _330
REMARK  130  A    between atoms: _330  and  _331
REMARK  131  A    between atoms: _336  and  _338
REMARK  132  A    between atoms: _338  and  _339
REMARK  133  A    between atoms: _338  and  _341
REMARK  134  A    between atoms: _341  and  _342
REMARK  135  A    between atoms: _345  and  _347
REMARK  136  A    between atoms: _347  and  _348
REMARK  137  A    between atoms: _347  and  _350
REMARK  138  A    between atoms: _350  and  _351
REMARK  139  A    between atoms: _356  and  _357
REMARK  140  A    between atoms: _359  and  _361
REMARK  141  A    between atoms: _361  and  _362
REMARK  142  A    between atoms: _361  and  _364
REMARK  143  A    between atoms: _364  and  _365
REMARK  144  A    between atoms: _368  and  _370
REMARK  145  A    between atoms: _370  and  _371
REMARK  146  A    between atoms: _370  and  _373
REMARK  147  A    between atoms: _373  and  _374
REMARK  148  A    between atoms: _379  and  _380
REMARK  149  A    between atoms: _383  and  _384
REMARK  150  A    between atoms: _389  and  _391
REMARK  151  A    between atoms: _391  and  _392
REMARK  152  A    between atoms: _391  and  _394
REMARK  153  A    between atoms: _394  and  _395
REMARK  154  A    between atoms: _400  and  _401
REMARK  155  A    between atoms: _403  and  _405
REMARK  156  A    between atoms: _405  and  _406
REMARK  157  A    between atoms: _405  and  _408
REMARK  158  A    between atoms: _408  and  _409
REMARK  159  A    between atoms: _409  and  _410
REMARK  160  A    between atoms: _412  and  _414
REMARK  161  A    between atoms: _414  and  _415
REMARK  162  A    between atoms: _414  and  _417
REMARK  163  A    between atoms: _417  and  _418
REMARK  164  A    between atoms: _423  and  _424
REMARK  165  A    between atoms: _426  and  _428
REMARK  166  A    between atoms: _428  and  _429
REMARK  167  A    between atoms: _428  and  _431
REMARK  168  A    between atoms: _431  and  _432
REMARK  169  A    between atoms: _435  and  _437
REMARK  170  A    between atoms: _437  and  _438
REMARK  171  A    between atoms: _441  and  _443
REMARK  172  A    between atoms: _443  and  _444
REMARK  173  A    between atoms: _446  and  _448
REMARK  174  A    between atoms: _448  and  _449
REMARK  175  A    between atoms: _448  and  _451
REMARK  176  A    between atoms: _451  and  _452
REMARK  177  A    between atoms: _457  and  _458
REMARK  178  A    between atoms: _460  and  _462
REMARK  179  A    between atoms: _462  and  _463
REMARK  180  A    between atoms: _462  and  _465
REMARK  181  A    between atoms: _465  and  _466
REMARK  182  A    between atoms: _471  and  _473
REMARK  183  A    between atoms: _473  and  _474
REMARK  184  A    between atoms: _473  and  _476
REMARK  185  A    between atoms: _478  and  _480
REMARK  186  A    between atoms: _480  and  _481
REMARK  187  A    between atoms: _480  and  _483
REMARK  188  A    between atoms: _483  and  _484
REMARK  189  A    between atoms: _484  and  _485
REMARK  190  A    between atoms: _485  and  _486
REMARK  191  A    between atoms: _495  and  _497
REMARK  192  A    between atoms: _497  and  _498
REMARK  193  A    between atoms: _501  and  _503
REMARK  194  A    between atoms: _503  and  _504
REMARK  195  A    between atoms: _507  and  _509
REMARK  196  A    between atoms: _509  and  _510
REMARK  197  A    between atoms: _509  and  _512
REMARK  198  A    between atoms: _512  and  _513
REMARK  199  A    between atoms: _523  and  _525
REMARK  200  A    between atoms: _525  and  _526
REMARK  201  A    between atoms: _525  and  _528
REMARK  202  A    between atoms: _528  and  _529
REMARK  203  A    between atoms: _532  and  _534
REMARK  204  A    between atoms: _534  and  _535
REMARK  205  A    between atoms: _534  and  _537
REMARK  206  A    between atoms: _537  and  _538
REMARK  207  A    between atoms: _538  and  _539
REMARK  208  A    between atoms: _542  and  _544
REMARK  209  A    between atoms: _544  and  _545
REMARK  210  A    between atoms: _544  and  _547
REMARK  211  A    between atoms: _547  and  _548
REMARK  212  A    between atoms: _551  and  _553
REMARK  213  A    between atoms: _553  and  _554
REMARK  214  A    between atoms: _553  and  _556
REMARK  215  A    between atoms: _556  and  _557
REMARK  216  A    between atoms: _557  and  _558
REMARK  217  A    between atoms: _561  and  _563
REMARK  218  A    between atoms: _563  and  _564
REMARK  219  A    between atoms: _563  and  _566
REMARK  220  A    between atoms: _566  and  _567
REMARK  221  A    between atoms: _573  and  _575
REMARK  222  A    between atoms: _575  and  _576
REMARK  223  A    between atoms: _575  and  _578
REMARK  224  A    between atoms: _578  and  _579
REMARK  225  A    between atoms: _579  and  _580
REMARK  226  A    between atoms: _583  and  _585
REMARK  227  A    between atoms: _585  and  _586
REMARK  228  A    between atoms: _585  and  _588
REMARK  229  A    between atoms: _591  and  _593
REMARK  230  A    between atoms: _593  and  _594
REMARK  231  A    between atoms: _593  and  _596
REMARK                            x       y       z     vdW  Elec       q    Type
REMARK                         _______ _______ _______ _____ _____    ______ ____
ROOT
ATOM      1  O   HOH     1      18.074   5.494   5.992  0.00  0.00    +0.000 OA
ENDROOT
TORSDOF 0
REMARK  Name = ../refined-set-2016/4x5z/4x5z_pocket.pdb
REMARK  231 active torsions:
REMARK  status: ('A' for Active; 'I' for Inactive)
REMARK    1  A    between atoms: _1  and  _3
REMARK    2  A    between atoms: _3  and  _4
REMARK    3  A    between atoms: _3  and  _6
REMARK    4  A    between atoms: _6  and  _7
REMARK    5  A    between atoms: _10  and  _12
REMARK    6  A    between atoms: _12  and  _13
REMARK    7  A    between atoms: _12  and  _15
REMARK    8  A    between atoms: _15  and  _16
REMARK    9  A    between atoms: _18  and  _20
REMARK   10  A    between atoms: _20  and  _21
REMARK   11  A    between atoms: _20  and  _23
REMARK   12  A    between atoms: _23  and  _24
REMARK   13  A    between atoms: _26  and  _28
REMARK   14  A    between atoms: _28  and  _29
REMARK   15  A    between atoms: _31  and  _33
REMARK   16  A    between atoms: _33  and  _34
REMARK   17  A    between atoms: _37  and  _39
REMARK   18  A    between atoms: _39  and  _40
REMARK   19  A    between atoms: _39  and  _42
REMARK   20  A    between atoms: _42  and  _43
REMARK   21  A    between atoms: _49  and  _51
REMARK   22  A    between atoms: _51  and  _52
REMARK   23  A    between atoms: _51  and  _54
REMARK   24  A    between atoms: _54  and  _55
REMARK   25  A    between atoms: _58  and  _60
REMARK   26  A    between atoms: _60  and  _61
REMARK   27  A    between atoms: _64  and  _66
REMARK   28  A    between atoms: _66  and  _67
REMARK   29  A    between atoms: _66  and  _69
REMARK   30  A    between atoms: _69  and  _70
REMARK   31  A    between atoms: _73  and  _75
REMARK   32  A    between atoms: _75  and  _76
REMARK   33  A    between atoms: _75  and  _78
REMARK   34  A    between atoms: _78  and  _79
REMARK   35  A    between atoms: _81  and  _83
REMARK   36  A    between atoms: _83  and  _84
REMARK   37  A    between atoms: _83  and  _86
REMARK   38  A    between atoms: _86  and  _87
REMARK   39  A    between atoms: _87  and  _88
REMARK   40  A    between atoms: _91  and  _93
REMARK   41  A    between atoms: _93  and  _94
REMARK   42  A    between atoms: _93  and  _96
REMARK   43  A    between atoms: _96  and  _97
REMARK   44  A    between atoms: _100  and  _102
REMARK   45  A    between atoms: _102  and  _103
REMARK   46  A    between atoms: _102  and  _105
REMARK   47  A    between atoms: _105  and  _106
REMARK   48  A    between atoms: _111  and  _113
REMARK   49  A    between atoms: _113  and  _114
REMARK   50  A    between atoms: _117  and  _119
REMARK   51  A    between atoms: _119  and  _120
REMARK   52  A    between atoms: _119  and  _122
REMARK   53  A    between atoms: _122  and  _123
REMARK   54  A    between atoms: _133  and  _135
REMARK   55  A    between atoms: _135  and  _136
REMARK   56  A    between atoms: _135  and  _138
REMARK   57  A    between atoms: _138  and  _139
REMARK   58  A    between atoms: _142  and  _144
REMARK   59  A    between atoms: _144  and  _145
REMARK   60  A    between atoms: _144  and  _147
REMARK   61  A    between atoms: _147  and  _148
REMARK   62  A    between atoms: _158  and  _160
REMARK   63  A    between atoms: _160  and  _161
REMARK   64  A    between atoms: _160  and  _163
REMARK   65  A    between atoms: _163  and  _164
REMARK   66  A    between atoms: _169  and  _171
REMARK   67  A    between atoms: _171  and  _172
REMARK   68  A    between atoms: _174  and  _176
REMARK   69  A    between atoms: _176  and  _177
REMARK   70  A    between atoms: _176  and  _179
REMARK   71  A    between atoms: _179  and  _180
REMARK   72  A    between atoms: _190  and  _192
REMARK   73  A    between atoms: _192  and  _193
REMARK   74  A    between atoms: _192  and  _195
REMARK   75  A    between atoms: _195  and  _196
REMARK   76  A    between atoms: _199  and  _201
REMARK   77  A    between atoms: _201  and  _202
REMARK   78  A    between atoms: _201  and  _204
REMARK   79  A    between atoms: _204  and  _205
REMARK   80  A    between atoms: _205  and  _206
REMARK   81  A    between atoms: _208  and  _210
REMARK   82  A    between atoms: _210  and  _211
REMARK   83  A    between atoms: _210  and  _213
REMARK   84  A    between atoms: _215  and  _217
REMARK   85  A    between atoms: _217  and  _218
REMARK   86  A    between atoms: _221  and  _223
REMARK   87  A    between atoms: _223  and  _224
REMARK   88  A    between atoms: _223  and  _226
REMARK   89  A    between atoms: _226  and  _227
REMARK   90  A    between atoms: _233  and  _235
REMARK   91  A    between atoms: _235  and  _236
REMARK   92  A    between atoms: _235  and  _238
REMARK   93  A    between atoms: _238  and  _239
REMARK   94  A    between atoms: _239  and  _240
REMARK   95  A    between atoms: _242  and  _244
REMARK   96  A    between atoms: _244  and  _245
REMARK   97  A    between atoms: _244  and  _247
REMARK   98  A    between atoms: _250  and  _252
REMARK   99  A    between atoms: _252  and  _253
REMARK  100  A    between atoms: _252  and  _255
REMARK  101  A    between atoms: _257  and  _259
REMARK  102  A    between atoms: _259  and  _260
REMARK  103  A    between atoms: _263  and  _265
REMARK  104  A    between atoms: _265  and  _266
REMARK  105  A    between atoms: _265  and  _268
REMARK  106  A    between atoms: _268  and  _269
REMARK  107  A    between atoms: _269  and  _270
REMARK  108  A    between atoms: _275  and  _277
REMARK  109  A    between atoms: _277  and  _278
REMARK  110  A    between atoms: _277  and  _280
REMARK  111  A    between atoms: _280  and  _281
REMARK  112  A    between atoms: _286  and  _287
REMARK  113  A    between atoms: _290  and  _291
REMARK  114  A    between atoms: _296  and  _298
REMARK  115  A    between atoms: _298  and  _299
REMARK  116  A    between atoms: _298  and  _301
REMARK  117  A    between atoms: _301  and  _302
REMARK  118  A    between atoms: _302  and  _303
REMARK  119  A    between atoms: _305  and  _307
REMARK  120  A    between atoms: _307  and  _308
REMARK  121  A    between atoms: _311  and  _313
REMARK  122  A    between atoms: _313  and  _314
REMARK  123  A    between atoms: _313  and  _316
REMARK  124  A    between atoms: _316  and  _317
REMARK  125  A    between atoms: _320  and  _322
REMARK  126  A    between atoms: _322  and  _323
REMARK  127  A    between atoms: _325  and  _327
REMARK  128  A    between atoms: _327  and  _328
REMARK  129  A    between atoms: _327  and  _330
REMARK  130  A    between atoms: _330  and  _331
REMARK  131  A    between atoms: _336  and  _338
REMARK  132  A    between atoms: _338  and  _339
REMARK  133  A    between atoms: _338  and  _341
REMARK  134  A    between atoms: _341  and  _342
REMARK  135  A    between atoms: _345  and  _347
REMARK  136  A    between atoms: _347  and  _348
REMARK  137  A    between atoms: _347  and  _350
REMARK  138  A    between atoms: _350  and  _351
REMARK  139  A    between atoms: _356  and  _357
REMARK  140  A    between atoms: _359  and  _361
REMARK  141  A    between atoms: _361  and  _362
REMARK  142  A    between atoms: _361  and  _364
REMARK  143  A    between atoms: _364  and  _365
REMARK  144  A    between atoms: _368  and  _370
REMARK  145  A    between atoms: _370  and  _371
REMARK  146  A    between atoms: _370  and  _373
REMARK  147  A    between atoms: _373  and  _374
REMARK  148  A    between atoms: _379  and  _380
REMARK  149  A    between atoms: _383  and  _384
REMARK  150  A    between atoms: _389  and  _391
REMARK  151  A    between atoms: _391  and  _392
REMARK  152  A    between atoms: _391  and  _394
REMARK  153  A    between atoms: _394  and  _395
REMARK  154  A    between atoms: _400  and  _401
REMARK  155  A    between atoms: _403  and  _405
REMARK  156  A    between atoms: _405  and  _406
REMARK  157  A    between atoms: _405  and  _408
REMARK  158  A    between atoms: _408  and  _409
REMARK  159  A    between atoms: _409  and  _410
REMARK  160  A    between atoms: _412  and  _414
REMARK  161  A    between atoms: _414  and  _415
REMARK  162  A    between atoms: _414  and  _417
REMARK  163  A    between atoms: _417  and  _418
REMARK  164  A    between atoms: _423  and  _424
REMARK  165  A    between atoms: _426  and  _428
REMARK  166  A    between atoms: _428  and  _429
REMARK  167  A    between atoms: _428  and  _431
REMARK  168  A    between atoms: _431  and  _432
REMARK  169  A    between atoms: _435  and  _437
REMARK  170  A    between atoms: _437  and  _438
REMARK  171  A    between atoms: _441  and  _443
REMARK  172  A    between atoms: _443  and  _444
REMARK  173  A    between atoms: _446  and  _448
REMARK  174  A    between atoms: _448  and  _449
REMARK  175  A    between atoms: _448  and  _451
REMARK  176  A    between atoms: _451  and  _452
REMARK  177  A    between atoms: _457  and  _458
REMARK  178  A    between atoms: _460  and  _462
REMARK  179  A    between atoms: _462  and  _463
REMARK  180  A    between atoms: _462  and  _465
REMARK  181  A    between atoms: _465  and  _466
REMARK  182  A    between atoms: _471  and  _473
REMARK  183  A    between atoms: _473  and  _474
REMARK  184  A    between atoms: _473  and  _476
REMARK  185  A    between atoms: _478  and  _480
REMARK  186  A    between atoms: _480  and  _481
REMARK  187  A    between atoms: _480  and  _483
REMARK  188  A    between atoms: _483  and  _484
REMARK  189  A    between atoms: _484  and  _485
REMARK  190  A    between atoms: _485  and  _486
REMARK  191  A    between atoms: _495  and  _497
REMARK  192  A    between atoms: _497  and  _498
REMARK  193  A    between atoms: _501  and  _503
REMARK  194  A    between atoms: _503  and  _504
REMARK  195  A    between atoms: _507  and  _509
REMARK  196  A    between atoms: _509  and  _510
REMARK  197  A    between atoms: _509  and  _512
REMARK  198  A    between atoms: _512  and  _513
REMARK  199  A    between atoms: _523  and  _525
REMARK  200  A    between atoms: _525  and  _526
REMARK  201  A    between atoms: _525  and  _528
REMARK  202  A    between atoms: _528  and  _529
REMARK  203  A    between atoms: _532  and  _534
REMARK  204  A    between atoms: _534  and  _535
REMARK  205  A    between atoms: _534  and  _537
REMARK  206  A    between atoms: _537  and  _538
REMARK  207  A    between atoms: _538  and  _539
REMARK  208  A    between atoms: _542  and  _544
REMARK  209  A    between atoms: _544  and  _545
REMARK  210  A    between atoms: _544  and  _547
REMARK  211  A    between atoms: _547  and  _548
REMARK  212  A    between atoms: _551  and  _553
REMARK  213  A    between atoms: _553  and  _554
REMARK  214  A    between atoms: _553  and  _556
REMARK  215  A    between atoms: _556  and  _557
REMARK  216  A    between atoms: _557  and  _558
REMARK  217  A    between atoms: _561  and  _563
REMARK  218  A    between atoms: _563  and  _564
REMARK  219  A    between atoms: _563  and  _566
REMARK  220  A    between atoms: _566  and  _567
REMARK  221  A    between atoms: _573  and  _575
REMARK  222  A    between atoms: _575  and  _576
REMARK  223  A    between atoms: _575  and  _578
REMARK  224  A    between atoms: _578  and  _579
REMARK  225  A    between atoms: _579  and  _580
REMARK  226  A    between atoms: _583  and  _585
REMARK  227  A    between atoms: _585  and  _586
REMARK  228  A    between atoms: _585  and  _588
REMARK  229  A    between atoms: _591  and  _593
REMARK  230  A    between atoms: _593  and  _594
REMARK  231  A    between atoms: _593  and  _596
REMARK                            x       y       z     vdW  Elec       q    Type
REMARK                         _______ _______ _______ _____ _____    ______ ____
ROOT
ATOM      1  O   HOH     1       8.907   9.870   5.369  0.00  0.00    +0.000 OA
ENDROOT
TORSDOF 0
REMARK  Name = ../refined-set-2016/4x5z/4x5z_pocket.pdb
REMARK  231 active torsions:
REMARK  status: ('A' for Active; 'I' for Inactive)
REMARK    1  A    between atoms: _1  and  _3
REMARK    2  A    between atoms: _3  and  _4
REMARK    3  A    between atoms: _3  and  _6
REMARK    4  A    between atoms: _6  and  _7
REMARK    5  A    between atoms: _10  and  _12
REMARK    6  A    between atoms: _12  and  _13
REMARK    7  A    between atoms: _12  and  _15
REMARK    8  A    between atoms: _15  and  _16
REMARK    9  A    between atoms: _18  and  _20
REMARK   10  A    between atoms: _20  and  _21
REMARK   11  A    between atoms: _20  and  _23
REMARK   12  A    between atoms: _23  and  _24
REMARK   13  A    between atoms: _26  and  _28
REMARK   14  A    between atoms: _28  and  _29
REMARK   15  A    between atoms: _31  and  _33
REMARK   16  A    between atoms: _33  and  _34
REMARK   17  A    between atoms: _37  and  _39
REMARK   18  A    between atoms: _39  and  _40
REMARK   19  A    between atoms: _39  and  _42
REMARK   20  A    between atoms: _42  and  _43
REMARK   21  A    between atoms: _49  and  _51
REMARK   22  A    between atoms: _51  and  _52
REMARK   23  A    between atoms: _51  and  _54
REMARK   24  A    between atoms: _54  and  _55
REMARK   25  A    between atoms: _58  and  _60
REMARK   26  A    between atoms: _60  and  _61
REMARK   27  A    between atoms: _64  and  _66
REMARK   28  A    between atoms: _66  and  _67
REMARK   29  A    between atoms: _66  and  _69
REMARK   30  A    between atoms: _69  and  _70
REMARK   31  A    between atoms: _73  and  _75
REMARK   32  A    between atoms: _75  and  _76
REMARK   33  A    between atoms: _75  and  _78
REMARK   34  A    between atoms: _78  and  _79
REMARK   35  A    between atoms: _81  and  _83
REMARK   36  A    between atoms: _83  and  _84
REMARK   37  A    between atoms: _83  and  _86
REMARK   38  A    between atoms: _86  and  _87
REMARK   39  A    between atoms: _87  and  _88
REMARK   40  A    between atoms: _91  and  _93
REMARK   41  A    between atoms: _93  and  _94
REMARK   42  A    between atoms: _93  and  _96
REMARK   43  A    between atoms: _96  and  _97
REMARK   44  A    between atoms: _100  and  _102
REMARK   45  A    between atoms: _102  and  _103
REMARK   46  A    between atoms: _102  and  _105
REMARK   47  A    between atoms: _105  and  _106
REMARK   48  A    between atoms: _111  and  _113
REMARK   49  A    between atoms: _113  and  _114
REMARK   50  A    between atoms: _117  and  _119
REMARK   51  A    between atoms: _119  and  _120
REMARK   52  A    between atoms: _119  and  _122
REMARK   53  A    between atoms: _122  and  _123
REMARK   54  A    between atoms: _133  and  _135
REMARK   55  A    between atoms: _135  and  _136
REMARK   56  A    between atoms: _135  and  _138
REMARK   57  A    between atoms: _138  and  _139
REMARK   58  A    between atoms: _142  and  _144
REMARK   59  A    between atoms: _144  and  _145
REMARK   60  A    between atoms: _144  and  _147
REMARK   61  A    between atoms: _147  and  _148
REMARK   62  A    between atoms: _158  and  _160
REMARK   63  A    between atoms: _160  and  _161
REMARK   64  A    between atoms: _160  and  _163
REMARK   65  A    between atoms: _163  and  _164
REMARK   66  A    between atoms: _169  and  _171
REMARK   67  A    between atoms: _171  and  _172
REMARK   68  A    between atoms: _174  and  _176
REMARK   69  A    between atoms: _176  and  _177
REMARK   70  A    between atoms: _176  and  _179
REMARK   71  A    between atoms: _179  and  _180
REMARK   72  A    between atoms: _190  and  _192
REMARK   73  A    between atoms: _192  and  _193
REMARK   74  A    between atoms: _192  and  _195
REMARK   75  A    between atoms: _195  and  _196
REMARK   76  A    between atoms: _199  and  _201
REMARK   77  A    between atoms: _201  and  _202
REMARK   78  A    between atoms: _201  and  _204
REMARK   79  A    between atoms: _204  and  _205
REMARK   80  A    between atoms: _205  and  _206
REMARK   81  A    between atoms: _208  and  _210
REMARK   82  A    between atoms: _210  and  _211
REMARK   83  A    between atoms: _210  and  _213
REMARK   84  A    between atoms: _215  and  _217
REMARK   85  A    between atoms: _217  and  _218
REMARK   86  A    between atoms: _221  and  _223
REMARK   87  A    between atoms: _223  and  _224
REMARK   88  A    between atoms: _223  and  _226
REMARK   89  A    between atoms: _226  and  _227
REMARK   90  A    between atoms: _233  and  _235
REMARK   91  A    between atoms: _235  and  _236
REMARK   92  A    between atoms: _235  and  _238
REMARK   93  A    between atoms: _238  and  _239
REMARK   94  A    between atoms: _239  and  _240
REMARK   95  A    between atoms: _242  and  _244
REMARK   96  A    between atoms: _244  and  _245
REMARK   97  A    between atoms: _244  and  _247
REMARK   98  A    between atoms: _250  and  _252
REMARK   99  A    between atoms: _252  and  _253
REMARK  100  A    between atoms: _252  and  _255
REMARK  101  A    between atoms: _257  and  _259
REMARK  102  A    between atoms: _259  and  _260
REMARK  103  A    between atoms: _263  and  _265
REMARK  104  A    between atoms: _265  and  _266
REMARK  105  A    between atoms: _265  and  _268
REMARK  106  A    between atoms: _268  and  _269
REMARK  107  A    between atoms: _269  and  _270
REMARK  108  A    between atoms: _275  and  _277
REMARK  109  A    between atoms: _277  and  _278
REMARK  110  A    between atoms: _277  and  _280
REMARK  111  A    between atoms: _280  and  _281
REMARK  112  A    between atoms: _286  and  _287
REMARK  113  A    between atoms: _290  and  _291
REMARK  114  A    between atoms: _296  and  _298
REMARK  115  A    between atoms: _298  and  _299
REMARK  116  A    between atoms: _298  and  _301
REMARK  117  A    between atoms: _301  and  _302
REMARK  118  A    between atoms: _302  and  _303
REMARK  119  A    between atoms: _305  and  _307
REMARK  120  A    between atoms: _307  and  _308
REMARK  121  A    between atoms: _311  and  _313
REMARK  122  A    between atoms: _313  and  _314
REMARK  123  A    between atoms: _313  and  _316
REMARK  124  A    between atoms: _316  and  _317
REMARK  125  A    between atoms: _320  and  _322
REMARK  126  A    between atoms: _322  and  _323
REMARK  127  A    between atoms: _325  and  _327
REMARK  128  A    between atoms: _327  and  _328
REMARK  129  A    between atoms: _327  and  _330
REMARK  130  A    between atoms: _330  and  _331
REMARK  131  A    between atoms: _336  and  _338
REMARK  132  A    between atoms: _338  and  _339
REMARK  133  A    between atoms: _338  and  _341
REMARK  134  A    between atoms: _341  and  _342
REMARK  135  A    between atoms: _345  and  _347
REMARK  136  A    between atoms: _347  and  _348
REMARK  137  A    between atoms: _347  and  _350
REMARK  138  A    between atoms: _350  and  _351
REMARK  139  A    between atoms: _356  and  _357
REMARK  140  A    between atoms: _359  and  _361
REMARK  141  A    between atoms: _361  and  _362
REMARK  142  A    between atoms: _361  and  _364
REMARK  143  A    between atoms: _364  and  _365
REMARK  144  A    between atoms: _368  and  _370
REMARK  145  A    between atoms: _370  and  _371
REMARK  146  A    between atoms: _370  and  _373
REMARK  147  A    between atoms: _373  and  _374
REMARK  148  A    between atoms: _379  and  _380
REMARK  149  A    between atoms: _383  and  _384
REMARK  150  A    between atoms: _389  and  _391
REMARK  151  A    between atoms: _391  and  _392
REMARK  152  A    between atoms: _391  and  _394
REMARK  153  A    between atoms: _394  and  _395
REMARK  154  A    between atoms: _400  and  _401
REMARK  155  A    between atoms: _403  and  _405
REMARK  156  A    between atoms: _405  and  _406
REMARK  157  A    between atoms: _405  and  _408
REMARK  158  A    between atoms: _408  and  _409
REMARK  159  A    between atoms: _409  and  _410
REMARK  160  A    between atoms: _412  and  _414
REMARK  161  A    between atoms: _414  and  _415
REMARK  162  A    between atoms: _414  and  _417
REMARK  163  A    between atoms: _417  and  _418
REMARK  164  A    between atoms: _423  and  _424
REMARK  165  A    between atoms: _426  and  _428
REMARK  166  A    between atoms: _428  and  _429
REMARK  167  A    between atoms: _428  and  _431
REMARK  168  A    between atoms: _431  and  _432
REMARK  169  A    between atoms: _435  and  _437
REMARK  170  A    between atoms: _437  and  _438
REMARK  171  A    between atoms: _441  and  _443
REMARK  172  A    between atoms: _443  and  _444
REMARK  173  A    between atoms: _446  and  _448
REMARK  174  A    between atoms: _448  and  _449
REMARK  175  A    between atoms: _448  and  _451
REMARK  176  A    between atoms: _451  and  _452
REMARK  177  A    between atoms: _457  and  _458
REMARK  178  A    between atoms: _460  and  _462
REMARK  179  A    between atoms: _462  and  _463
REMARK  180  A    between atoms: _462  and  _465
REMARK  181  A    between atoms: _465  and  _466
REMARK  182  A    between atoms: _471  and  _473
REMARK  183  A    between atoms: _473  and  _474
REMARK  184  A    between atoms: _473  and  _476
REMARK  185  A    between atoms: _478  and  _480
REMARK  186  A    between atoms: _480  and  _481
REMARK  187  A    between atoms: _480  and  _483
REMARK  188  A    between atoms: _483  and  _484
REMARK  189  A    between atoms: _484  and  _485
REMARK  190  A    between atoms: _485  and  _486
REMARK  191  A    between atoms: _495  and  _497
REMARK  192  A    between atoms: _497  and  _498
REMARK  193  A    between atoms: _501  and  _503
REMARK  194  A    between atoms: _503  and  _504
REMARK  195  A    between atoms: _507  and  _509
REMARK  196  A    between atoms: _509  and  _510
REMARK  197  A    between atoms: _509  and  _512
REMARK  198  A    between atoms: _512  and  _513
REMARK  199  A    between atoms: _523  and  _525
REMARK  200  A    between atoms: _525  and  _526
REMARK  201  A    between atoms: _525  and  _528
REMARK  202  A    between atoms: _528  and  _529
REMARK  203  A    between atoms: _532  and  _534
REMARK  204  A    between atoms: _534  and  _535
REMARK  205  A    between atoms: _534  and  _537
REMARK  206  A    between atoms: _537  and  _538
REMARK  207  A    between atoms: _538  and  _539
REMARK  208  A    between atoms: _542  and  _544
REMARK  209  A    between atoms: _544  and  _545
REMARK  210  A    between atoms: _544  and  _547
REMARK  211  A    between atoms: _547  and  _548
REMARK  212  A    between atoms: _551  and  _553
REMARK  213  A    between atoms: _553  and  _554
REMARK  214  A    between atoms: _553  and  _556
REMARK  215  A    between atoms: _556  and  _557
REMARK  216  A    between atoms: _557  and  _558
REMARK  217  A    between atoms: _561  and  _563
REMARK  218  A    between atoms: _563  and  _564
REMARK  219  A    between atoms: _563  and  _566
REMARK  220  A    between atoms: _566  and  _567
REMARK  221  A    between atoms: _573  and  _575
REMARK  222  A    between atoms: _575  and  _576
REMARK  223  A    between atoms: _575  and  _578
REMARK  224  A    between atoms: _578  and  _579
REMARK  225  A    between atoms: _579  and  _580
REMARK  226  A    between atoms: _583  and  _585
REMARK  227  A    between atoms: _585  and  _586
REMARK  228  A    between atoms: _585  and  _588
REMARK  229  A    between atoms: _591  and  _593
REMARK  230  A    between atoms: _593  and  _594
REMARK  231  A    between atoms: _593  and  _596
REMARK                            x       y       z     vdW  Elec       q    Type
REMARK                         _______ _______ _______ _____ _____    ______ ____
ROOT
ATOM      1  O   HOH     1      15.244  12.905  11.837  0.00  0.00    +0.000 OA
ENDROOT
TORSDOF 0
REMARK  Name = ../refined-set-2016/4x5z/4x5z_pocket.pdb
REMARK  231 active torsions:
REMARK  status: ('A' for Active; 'I' for Inactive)
REMARK    1  A    between atoms: _1  and  _3
REMARK    2  A    between atoms: _3  and  _4
REMARK    3  A    between atoms: _3  and  _6
REMARK    4  A    between atoms: _6  and  _7
REMARK    5  A    between atoms: _10  and  _12
REMARK    6  A    between atoms: _12  and  _13
REMARK    7  A    between atoms: _12  and  _15
REMARK    8  A    between atoms: _15  and  _16
REMARK    9  A    between atoms: _18  and  _20
REMARK   10  A    between atoms: _20  and  _21
REMARK   11  A    between atoms: _20  and  _23
REMARK   12  A    between atoms: _23  and  _24
REMARK   13  A    between atoms: _26  and  _28
REMARK   14  A    between atoms: _28  and  _29
REMARK   15  A    between atoms: _31  and  _33
REMARK   16  A    between atoms: _33  and  _34
REMARK   17  A    between atoms: _37  and  _39
REMARK   18  A    between atoms: _39  and  _40
REMARK   19  A    between atoms: _39  and  _42
REMARK   20  A    between atoms: _42  and  _43
REMARK   21  A    between atoms: _49  and  _51
REMARK   22  A    between atoms: _51  and  _52
REMARK   23  A    between atoms: _51  and  _54
REMARK   24  A    between atoms: _54  and  _55
REMARK   25  A    between atoms: _58  and  _60
REMARK   26  A    between atoms: _60  and  _61
REMARK   27  A    between atoms: _64  and  _66
REMARK   28  A    between atoms: _66  and  _67
REMARK   29  A    between atoms: _66  and  _69
REMARK   30  A    between atoms: _69  and  _70
REMARK   31  A    between atoms: _73  and  _75
REMARK   32  A    between atoms: _75  and  _76
REMARK   33  A    between atoms: _75  and  _78
REMARK   34  A    between atoms: _78  and  _79
REMARK   35  A    between atoms: _81  and  _83
REMARK   36  A    between atoms: _83  and  _84
REMARK   37  A    between atoms: _83  and  _86
REMARK   38  A    between atoms: _86  and  _87
REMARK   39  A    between atoms: _87  and  _88
REMARK   40  A    between atoms: _91  and  _93
REMARK   41  A    between atoms: _93  and  _94
REMARK   42  A    between atoms: _93  and  _96
REMARK   43  A    between atoms: _96  and  _97
REMARK   44  A    between atoms: _100  and  _102
REMARK   45  A    between atoms: _102  and  _103
REMARK   46  A    between atoms: _102  and  _105
REMARK   47  A    between atoms: _105  and  _106
REMARK   48  A    between atoms: _111  and  _113
REMARK   49  A    between atoms: _113  and  _114
REMARK   50  A    between atoms: _117  and  _119
REMARK   51  A    between atoms: _119  and  _120
REMARK   52  A    between atoms: _119  and  _122
REMARK   53  A    between atoms: _122  and  _123
REMARK   54  A    between atoms: _133  and  _135
REMARK   55  A    between atoms: _135  and  _136
REMARK   56  A    between atoms: _135  and  _138
REMARK   57  A    between atoms: _138  and  _139
REMARK   58  A    between atoms: _142  and  _144
REMARK   59  A    between atoms: _144  and  _145
REMARK   60  A    between atoms: _144  and  _147
REMARK   61  A    between atoms: _147  and  _148
REMARK   62  A    between atoms: _158  and  _160
REMARK   63  A    between atoms: _160  and  _161
REMARK   64  A    between atoms: _160  and  _163
REMARK   65  A    between atoms: _163  and  _164
REMARK   66  A    between atoms: _169  and  _171
REMARK   67  A    between atoms: _171  and  _172
REMARK   68  A    between atoms: _174  and  _176
REMARK   69  A    between atoms: _176  and  _177
REMARK   70  A    between atoms: _176  and  _179
REMARK   71  A    between atoms: _179  and  _180
REMARK   72  A    between atoms: _190  and  _192
REMARK   73  A    between atoms: _192  and  _193
REMARK   74  A    between atoms: _192  and  _195
REMARK   75  A    between atoms: _195  and  _196
REMARK   76  A    between atoms: _199  and  _201
REMARK   77  A    between atoms: _201  and  _202
REMARK   78  A    between atoms: _201  and  _204
REMARK   79  A    between atoms: _204  and  _205
REMARK   80  A    between atoms: _205  and  _206
REMARK   81  A    between atoms: _208  and  _210
REMARK   82  A    between atoms: _210  and  _211
REMARK   83  A    between atoms: _210  and  _213
REMARK   84  A    between atoms: _215  and  _217
REMARK   85  A    between atoms: _217  and  _218
REMARK   86  A    between atoms: _221  and  _223
REMARK   87  A    between atoms: _223  and  _224
REMARK   88  A    between atoms: _223  and  _226
REMARK   89  A    between atoms: _226  and  _227
REMARK   90  A    between atoms: _233  and  _235
REMARK   91  A    between atoms: _235  and  _236
REMARK   92  A    between atoms: _235  and  _238
REMARK   93  A    between atoms: _238  and  _239
REMARK   94  A    between atoms: _239  and  _240
REMARK   95  A    between atoms: _242  and  _244
REMARK   96  A    between atoms: _244  and  _245
REMARK   97  A    between atoms: _244  and  _247
REMARK   98  A    between atoms: _250  and  _252
REMARK   99  A    between atoms: _252  and  _253
REMARK  100  A    between atoms: _252  and  _255
REMARK  101  A    between atoms: _257  and  _259
REMARK  102  A    between atoms: _259  and  _260
REMARK  103  A    between atoms: _263  and  _265
REMARK  104  A    between atoms: _265  and  _266
REMARK  105  A    between atoms: _265  and  _268
REMARK  106  A    between atoms: _268  and  _269
REMARK  107  A    between atoms: _269  and  _270
REMARK  108  A    between atoms: _275  and  _277
REMARK  109  A    between atoms: _277  and  _278
REMARK  110  A    between atoms: _277  and  _280
REMARK  111  A    between atoms: _280  and  _281
REMARK  112  A    between atoms: _286  and  _287
REMARK  113  A    between atoms: _290  and  _291
REMARK  114  A    between atoms: _296  and  _298
REMARK  115  A    between atoms: _298  and  _299
REMARK  116  A    between atoms: _298  and  _301
REMARK  117  A    between atoms: _301  and  _302
REMARK  118  A    between atoms: _302  and  _303
REMARK  119  A    between atoms: _305  and  _307
REMARK  120  A    between atoms: _307  and  _308
REMARK  121  A    between atoms: _311  and  _313
REMARK  122  A    between atoms: _313  and  _314
REMARK  123  A    between atoms: _313  and  _316
REMARK  124  A    between atoms: _316  and  _317
REMARK  125  A    between atoms: _320  and  _322
REMARK  126  A    between atoms: _322  and  _323
REMARK  127  A    between atoms: _325  and  _327
REMARK  128  A    between atoms: _327  and  _328
REMARK  129  A    between atoms: _327  and  _330
REMARK  130  A    between atoms: _330  and  _331
REMARK  131  A    between atoms: _336  and  _338
REMARK  132  A    between atoms: _338  and  _339
REMARK  133  A    between atoms: _338  and  _341
REMARK  134  A    between atoms: _341  and  _342
REMARK  135  A    between atoms: _345  and  _347
REMARK  136  A    between atoms: _347  and  _348
REMARK  137  A    between atoms: _347  and  _350
REMARK  138  A    between atoms: _350  and  _351
REMARK  139  A    between atoms: _356  and  _357
REMARK  140  A    between atoms: _359  and  _361
REMARK  141  A    between atoms: _361  and  _362
REMARK  142  A    between atoms: _361  and  _364
REMARK  143  A    between atoms: _364  and  _365
REMARK  144  A    between atoms: _368  and  _370
REMARK  145  A    between atoms: _370  and  _371
REMARK  146  A    between atoms: _370  and  _373
REMARK  147  A    between atoms: _373  and  _374
REMARK  148  A    between atoms: _379  and  _380
REMARK  149  A    between atoms: _383  and  _384
REMARK  150  A    between atoms: _389  and  _391
REMARK  151  A    between atoms: _391  and  _392
REMARK  152  A    between atoms: _391  and  _394
REMARK  153  A    between atoms: _394  and  _395
REMARK  154  A    between atoms: _400  and  _401
REMARK  155  A    between atoms: _403  and  _405
REMARK  156  A    between atoms: _405  and  _406
REMARK  157  A    between atoms: _405  and  _408
REMARK  158  A    between atoms: _408  and  _409
REMARK  159  A    between atoms: _409  and  _410
REMARK  160  A    between atoms: _412  and  _414
REMARK  161  A    between atoms: _414  and  _415
REMARK  162  A    between atoms: _414  and  _417
REMARK  163  A    between atoms: _417  and  _418
REMARK  164  A    between atoms: _423  and  _424
REMARK  165  A    between atoms: _426  and  _428
REMARK  166  A    between atoms: _428  and  _429
REMARK  167  A    between atoms: _428  and  _431
REMARK  168  A    between atoms: _431  and  _432
REMARK  169  A    between atoms: _435  and  _437
REMARK  170  A    between atoms: _437  and  _438
REMARK  171  A    between atoms: _441  and  _443
REMARK  172  A    between atoms: _443  and  _444
REMARK  173  A    between atoms: _446  and  _448
REMARK  174  A    between atoms: _448  and  _449
REMARK  175  A    between atoms: _448  and  _451
REMARK  176  A    between atoms: _451  and  _452
REMARK  177  A    between atoms: _457  and  _458
REMARK  178  A    between atoms: _460  and  _462
REMARK  179  A    between atoms: _462  and  _463
REMARK  180  A    between atoms: _462  and  _465
REMARK  181  A    between atoms: _465  and  _466
REMARK  182  A    between atoms: _471  and  _473
REMARK  183  A    between atoms: _473  and  _474
REMARK  184  A    between atoms: _473  and  _476
REMARK  185  A    between atoms: _478  and  _480
REMARK  186  A    between atoms: _480  and  _481
REMARK  187  A    between atoms: _480  and  _483
REMARK  188  A    between atoms: _483  and  _484
REMARK  189  A    between atoms: _484  and  _485
REMARK  190  A    between atoms: _485  and  _486
REMARK  191  A    between atoms: _495  and  _497
REMARK  192  A    between atoms: _497  and  _498
REMARK  193  A    between atoms: _501  and  _503
REMARK  194  A    between atoms: _503  and  _504
REMARK  195  A    between atoms: _507  and  _509
REMARK  196  A    between atoms: _509  and  _510
REMARK  197  A    between atoms: _509  and  _512
REMARK  198  A    between atoms: _512  and  _513
REMARK  199  A    between atoms: _523  and  _525
REMARK  200  A    between atoms: _525  and  _526
REMARK  201  A    between atoms: _525  and  _528
REMARK  202  A    between atoms: _528  and  _529
REMARK  203  A    between atoms: _532  and  _534
REMARK  204  A    between atoms: _534  and  _535
REMARK  205  A    between atoms: _534  and  _537
REMARK  206  A    between atoms: _537  and  _538
REMARK  207  A    between atoms: _538  and  _539
REMARK  208  A    between atoms: _542  and  _544
REMARK  209  A    between atoms: _544  and  _545
REMARK  210  A    between atoms: _544  and  _547
REMARK  211  A    between atoms: _547  and  _548
REMARK  212  A    between atoms: _551  and  _553
REMARK  213  A    between atoms: _553  and  _554
REMARK  214  A    between atoms: _553  and  _556
REMARK  215  A    between atoms: _556  and  _557
REMARK  216  A    between atoms: _557  and  _558
REMARK  217  A    between atoms: _561  and  _563
REMARK  218  A    between atoms: _563  and  _564
REMARK  219  A    between atoms: _563  and  _566
REMARK  220  A    between atoms: _566  and  _567
REMARK  221  A    between atoms: _573  and  _575
REMARK  222  A    between atoms: _575  and  _576
REMARK  223  A    between atoms: _575  and  _578
REMARK  224  A    between atoms: _578  and  _579
REMARK  225  A    between atoms: _579  and  _580
REMARK  226  A    between atoms: _583  and  _585
REMARK  227  A    between atoms: _585  and  _586
REMARK  228  A    between atoms: _585  and  _588
REMARK  229  A    between atoms: _591  and  _593
REMARK  230  A    between atoms: _593  and  _594
REMARK  231  A    between atoms: _593  and  _596
REMARK                            x       y       z     vdW  Elec       q    Type
REMARK                         _______ _______ _______ _____ _____    ______ ____
ROOT
ATOM      1  O   HOH     1      22.970  13.955  11.925  0.00  0.00    +0.000 OA
ENDROOT
TORSDOF 0
REMARK  Name = ../refined-set-2016/4x5z/4x5z_pocket.pdb
REMARK  231 active torsions:
REMARK  status: ('A' for Active; 'I' for Inactive)
REMARK    1  A    between atoms: _1  and  _3
REMARK    2  A    between atoms: _3  and  _4
REMARK    3  A    between atoms: _3  and  _6
REMARK    4  A    between atoms: _6  and  _7
REMARK    5  A    between atoms: _10  and  _12
REMARK    6  A    between atoms: _12  and  _13
REMARK    7  A    between atoms: _12  and  _15
REMARK    8  A    between atoms: _15  and  _16
REMARK    9  A    between atoms: _18  and  _20
REMARK   10  A    between atoms: _20  and  _21
REMARK   11  A    between atoms: _20  and  _23
REMARK   12  A    between atoms: _23  and  _24
REMARK   13  A    between atoms: _26  and  _28
REMARK   14  A    between atoms: _28  and  _29
REMARK   15  A    between atoms: _31  and  _33
REMARK   16  A    between atoms: _33  and  _34
REMARK   17  A    between atoms: _37  and  _39
REMARK   18  A    between atoms: _39  and  _40
REMARK   19  A    between atoms: _39  and  _42
REMARK   20  A    between atoms: _42  and  _43
REMARK   21  A    between atoms: _49  and  _51
REMARK   22  A    between atoms: _51  and  _52
REMARK   23  A    between atoms: _51  and  _54
REMARK   24  A    between atoms: _54  and  _55
REMARK   25  A    between atoms: _58  and  _60
REMARK   26  A    between atoms: _60  and  _61
REMARK   27  A    between atoms: _64  and  _66
REMARK   28  A    between atoms: _66  and  _67
REMARK   29  A    between atoms: _66  and  _69
REMARK   30  A    between atoms: _69  and  _70
REMARK   31  A    between atoms: _73  and  _75
REMARK   32  A    between atoms: _75  and  _76
REMARK   33  A    between atoms: _75  and  _78
REMARK   34  A    between atoms: _78  and  _79
REMARK   35  A    between atoms: _81  and  _83
REMARK   36  A    between atoms: _83  and  _84
REMARK   37  A    between atoms: _83  and  _86
REMARK   38  A    between atoms: _86  and  _87
REMARK   39  A    between atoms: _87  and  _88
REMARK   40  A    between atoms: _91  and  _93
REMARK   41  A    between atoms: _93  and  _94
REMARK   42  A    between atoms: _93  and  _96
REMARK   43  A    between atoms: _96  and  _97
REMARK   44  A    between atoms: _100  and  _102
REMARK   45  A    between atoms: _102  and  _103
REMARK   46  A    between atoms: _102  and  _105
REMARK   47  A    between atoms: _105  and  _106
REMARK   48  A    between atoms: _111  and  _113
REMARK   49  A    between atoms: _113  and  _114
REMARK   50  A    between atoms: _117  and  _119
REMARK   51  A    between atoms: _119  and  _120
REMARK   52  A    between atoms: _119  and  _122
REMARK   53  A    between atoms: _122  and  _123
REMARK   54  A    between atoms: _133  and  _135
REMARK   55  A    between atoms: _135  and  _136
REMARK   56  A    between atoms: _135  and  _138
REMARK   57  A    between atoms: _138  and  _139
REMARK   58  A    between atoms: _142  and  _144
REMARK   59  A    between atoms: _144  and  _145
REMARK   60  A    between atoms: _144  and  _147
REMARK   61  A    between atoms: _147  and  _148
REMARK   62  A    between atoms: _158  and  _160
REMARK   63  A    between atoms: _160  and  _161
REMARK   64  A    between atoms: _160  and  _163
REMARK   65  A    between atoms: _163  and  _164
REMARK   66  A    between atoms: _169  and  _171
REMARK   67  A    between atoms: _171  and  _172
REMARK   68  A    between atoms: _174  and  _176
REMARK   69  A    between atoms: _176  and  _177
REMARK   70  A    between atoms: _176  and  _179
REMARK   71  A    between atoms: _179  and  _180
REMARK   72  A    between atoms: _190  and  _192
REMARK   73  A    between atoms: _192  and  _193
REMARK   74  A    between atoms: _192  and  _195
REMARK   75  A    between atoms: _195  and  _196
REMARK   76  A    between atoms: _199  and  _201
REMARK   77  A    between atoms: _201  and  _202
REMARK   78  A    between atoms: _201  and  _204
REMARK   79  A    between atoms: _204  and  _205
REMARK   80  A    between atoms: _205  and  _206
REMARK   81  A    between atoms: _208  and  _210
REMARK   82  A    between atoms: _210  and  _211
REMARK   83  A    between atoms: _210  and  _213
REMARK   84  A    between atoms: _215  and  _217
REMARK   85  A    between atoms: _217  and  _218
REMARK   86  A    between atoms: _221  and  _223
REMARK   87  A    between atoms: _223  and  _224
REMARK   88  A    between atoms: _223  and  _226
REMARK   89  A    between atoms: _226  and  _227
REMARK   90  A    between atoms: _233  and  _235
REMARK   91  A    between atoms: _235  and  _236
REMARK   92  A    between atoms: _235  and  _238
REMARK   93  A    between atoms: _238  and  _239
REMARK   94  A    between atoms: _239  and  _240
REMARK   95  A    between atoms: _242  and  _244
REMARK   96  A    between atoms: _244  and  _245
REMARK   97  A    between atoms: _244  and  _247
REMARK   98  A    between atoms: _250  and  _252
REMARK   99  A    between atoms: _252  and  _253
REMARK  100  A    between atoms: _252  and  _255
REMARK  101  A    between atoms: _257  and  _259
REMARK  102  A    between atoms: _259  and  _260
REMARK  103  A    between atoms: _263  and  _265
REMARK  104  A    between atoms: _265  and  _266
REMARK  105  A    between atoms: _265  and  _268
REMARK  106  A    between atoms: _268  and  _269
REMARK  107  A    between atoms: _269  and  _270
REMARK  108  A    between atoms: _275  and  _277
REMARK  109  A    between atoms: _277  and  _278
REMARK  110  A    between atoms: _277  and  _280
REMARK  111  A    between atoms: _280  and  _281
REMARK  112  A    between atoms: _286  and  _287
REMARK  113  A    between atoms: _290  and  _291
REMARK  114  A    between atoms: _296  and  _298
REMARK  115  A    between atoms: _298  and  _299
REMARK  116  A    between atoms: _298  and  _301
REMARK  117  A    between atoms: _301  and  _302
REMARK  118  A    between atoms: _302  and  _303
REMARK  119  A    between atoms: _305  and  _307
REMARK  120  A    between atoms: _307  and  _308
REMARK  121  A    between atoms: _311  and  _313
REMARK  122  A    between atoms: _313  and  _314
REMARK  123  A    between atoms: _313  and  _316
REMARK  124  A    between atoms: _316  and  _317
REMARK  125  A    between atoms: _320  and  _322
REMARK  126  A    between atoms: _322  and  _323
REMARK  127  A    between atoms: _325  and  _327
REMARK  128  A    between atoms: _327  and  _328
REMARK  129  A    between atoms: _327  and  _330
REMARK  130  A    between atoms: _330  and  _331
REMARK  131  A    between atoms: _336  and  _338
REMARK  132  A    between atoms: _338  and  _339
REMARK  133  A    between atoms: _338  and  _341
REMARK  134  A    between atoms: _341  and  _342
REMARK  135  A    between atoms: _345  and  _347
REMARK  136  A    between atoms: _347  and  _348
REMARK  137  A    between atoms: _347  and  _350
REMARK  138  A    between atoms: _350  and  _351
REMARK  139  A    between atoms: _356  and  _357
REMARK  140  A    between atoms: _359  and  _361
REMARK  141  A    between atoms: _361  and  _362
REMARK  142  A    between atoms: _361  and  _364
REMARK  143  A    between atoms: _364  and  _365
REMARK  144  A    between atoms: _368  and  _370
REMARK  145  A    between atoms: _370  and  _371
REMARK  146  A    between atoms: _370  and  _373
REMARK  147  A    between atoms: _373  and  _374
REMARK  148  A    between atoms: _379  and  _380
REMARK  149  A    between atoms: _383  and  _384
REMARK  150  A    between atoms: _389  and  _391
REMARK  151  A    between atoms: _391  and  _392
REMARK  152  A    between atoms: _391  and  _394
REMARK  153  A    between atoms: _394  and  _395
REMARK  154  A    between atoms: _400  and  _401
REMARK  155  A    between atoms: _403  and  _405
REMARK  156  A    between atoms: _405  and  _406
REMARK  157  A    between atoms: _405  and  _408
REMARK  158  A    between atoms: _408  and  _409
REMARK  159  A    between atoms: _409  and  _410
REMARK  160  A    between atoms: _412  and  _414
REMARK  161  A    between atoms: _414  and  _415
REMARK  162  A    between atoms: _414  and  _417
REMARK  163  A    between atoms: _417  and  _418
REMARK  164  A    between atoms: _423  and  _424
REMARK  165  A    between atoms: _426  and  _428
REMARK  166  A    between atoms: _428  and  _429
REMARK  167  A    between atoms: _428  and  _431
REMARK  168  A    between atoms: _431  and  _432
REMARK  169  A    between atoms: _435  and  _437
REMARK  170  A    between atoms: _437  and  _438
REMARK  171  A    between atoms: _441  and  _443
REMARK  172  A    between atoms: _443  and  _444
REMARK  173  A    between atoms: _446  and  _448
REMARK  174  A    between atoms: _448  and  _449
REMARK  175  A    between atoms: _448  and  _451
REMARK  176  A    between atoms: _451  and  _452
REMARK  177  A    between atoms: _457  and  _458
REMARK  178  A    between atoms: _460  and  _462
REMARK  179  A    between atoms: _462  and  _463
REMARK  180  A    between atoms: _462  and  _465
REMARK  181  A    between atoms: _465  and  _466
REMARK  182  A    between atoms: _471  and  _473
REMARK  183  A    between atoms: _473  and  _474
REMARK  184  A    between atoms: _473  and  _476
REMARK  185  A    between atoms: _478  and  _480
REMARK  186  A    between atoms: _480  and  _481
REMARK  187  A    between atoms: _480  and  _483
REMARK  188  A    between atoms: _483  and  _484
REMARK  189  A    between atoms: _484  and  _485
REMARK  190  A    between atoms: _485  and  _486
REMARK  191  A    between atoms: _495  and  _497
REMARK  192  A    between atoms: _497  and  _498
REMARK  193  A    between atoms: _501  and  _503
REMARK  194  A    between atoms: _503  and  _504
REMARK  195  A    between atoms: _507  and  _509
REMARK  196  A    between atoms: _509  and  _510
REMARK  197  A    between atoms: _509  and  _512
REMARK  198  A    between atoms: _512  and  _513
REMARK  199  A    between atoms: _523  and  _525
REMARK  200  A    between atoms: _525  and  _526
REMARK  201  A    between atoms: _525  and  _528
REMARK  202  A    between atoms: _528  and  _529
REMARK  203  A    between atoms: _532  and  _534
REMARK  204  A    between atoms: _534  and  _535
REMARK  205  A    between atoms: _534  and  _537
REMARK  206  A    between atoms: _537  and  _538
REMARK  207  A    between atoms: _538  and  _539
REMARK  208  A    between atoms: _542  and  _544
REMARK  209  A    between atoms: _544  and  _545
REMARK  210  A    between atoms: _544  and  _547
REMARK  211  A    between atoms: _547  and  _548
REMARK  212  A    between atoms: _551  and  _553
REMARK  213  A    between atoms: _553  and  _554
REMARK  214  A    between atoms: _553  and  _556
REMARK  215  A    between atoms: _556  and  _557
REMARK  216  A    between atoms: _557  and  _558
REMARK  217  A    between atoms: _561  and  _563
REMARK  218  A    between atoms: _563  and  _564
REMARK  219  A    between atoms: _563  and  _566
REMARK  220  A    between atoms: _566  and  _567
REMARK  221  A    between atoms: _573  and  _575
REMARK  222  A    between atoms: _575  and  _576
REMARK  223  A    between atoms: _575  and  _578
REMARK  224  A    between atoms: _578  and  _579
REMARK  225  A    between atoms: _579  and  _580
REMARK  226  A    between atoms: _583  and  _585
REMARK  227  A    between atoms: _585  and  _586
REMARK  228  A    between atoms: _585  and  _588
REMARK  229  A    between atoms: _591  and  _593
REMARK  230  A    between atoms: _593  and  _594
REMARK  231  A    between atoms: _593  and  _596
REMARK                            x       y       z     vdW  Elec       q    Type
REMARK                         _______ _______ _______ _____ _____    ______ ____
ROOT
ATOM      1  O   HOH     1      16.746  11.228   9.841  0.00  0.00    +0.000 OA
ENDROOT
TORSDOF 0
REMARK  Name = ../refined-set-2016/4x5z/4x5z_pocket.pdb
REMARK  231 active torsions:
REMARK  status: ('A' for Active; 'I' for Inactive)
REMARK    1  A    between atoms: _1  and  _3
REMARK    2  A    between atoms: _3  and  _4
REMARK    3  A    between atoms: _3  and  _6
REMARK    4  A    between atoms: _6  and  _7
REMARK    5  A    between atoms: _10  and  _12
REMARK    6  A    between atoms: _12  and  _13
REMARK    7  A    between atoms: _12  and  _15
REMARK    8  A    between atoms: _15  and  _16
REMARK    9  A    between atoms: _18  and  _20
REMARK   10  A    between atoms: _20  and  _21
REMARK   11  A    between atoms: _20  and  _23
REMARK   12  A    between atoms: _23  and  _24
REMARK   13  A    between atoms: _26  and  _28
REMARK   14  A    between atoms: _28  and  _29
REMARK   15  A    between atoms: _31  and  _33
REMARK   16  A    between atoms: _33  and  _34
REMARK   17  A    between atoms: _37  and  _39
REMARK   18  A    between atoms: _39  and  _40
REMARK   19  A    between atoms: _39  and  _42
REMARK   20  A    between atoms: _42  and  _43
REMARK   21  A    between atoms: _49  and  _51
REMARK   22  A    between atoms: _51  and  _52
REMARK   23  A    between atoms: _51  and  _54
REMARK   24  A    between atoms: _54  and  _55
REMARK   25  A    between atoms: _58  and  _60
REMARK   26  A    between atoms: _60  and  _61
REMARK   27  A    between atoms: _64  and  _66
REMARK   28  A    between atoms: _66  and  _67
REMARK   29  A    between atoms: _66  and  _69
REMARK   30  A    between atoms: _69  and  _70
REMARK   31  A    between atoms: _73  and  _75
REMARK   32  A    between atoms: _75  and  _76
REMARK   33  A    between atoms: _75  and  _78
REMARK   34  A    between atoms: _78  and  _79
REMARK   35  A    between atoms: _81  and  _83
REMARK   36  A    between atoms: _83  and  _84
REMARK   37  A    between atoms: _83  and  _86
REMARK   38  A    between atoms: _86  and  _87
REMARK   39  A    between atoms: _87  and  _88
REMARK   40  A    between atoms: _91  and  _93
REMARK   41  A    between atoms: _93  and  _94
REMARK   42  A    between atoms: _93  and  _96
REMARK   43  A    between atoms: _96  and  _97
REMARK   44  A    between atoms: _100  and  _102
REMARK   45  A    between atoms: _102  and  _103
REMARK   46  A    between atoms: _102  and  _105
REMARK   47  A    between atoms: _105  and  _106
REMARK   48  A    between atoms: _111  and  _113
REMARK   49  A    between atoms: _113  and  _114
REMARK   50  A    between atoms: _117  and  _119
REMARK   51  A    between atoms: _119  and  _120
REMARK   52  A    between atoms: _119  and  _122
REMARK   53  A    between atoms: _122  and  _123
REMARK   54  A    between atoms: _133  and  _135
REMARK   55  A    between atoms: _135  and  _136
REMARK   56  A    between atoms: _135  and  _138
REMARK   57  A    between atoms: _138  and  _139
REMARK   58  A    between atoms: _142  and  _144
REMARK   59  A    between atoms: _144  and  _145
REMARK   60  A    between atoms: _144  and  _147
REMARK   61  A    between atoms: _147  and  _148
REMARK   62  A    between atoms: _158  and  _160
REMARK   63  A    between atoms: _160  and  _161
REMARK   64  A    between atoms: _160  and  _163
REMARK   65  A    between atoms: _163  and  _164
REMARK   66  A    between atoms: _169  and  _171
REMARK   67  A    between atoms: _171  and  _172
REMARK   68  A    between atoms: _174  and  _176
REMARK   69  A    between atoms: _176  and  _177
REMARK   70  A    between atoms: _176  and  _179
REMARK   71  A    between atoms: _179  and  _180
REMARK   72  A    between atoms: _190  and  _192
REMARK   73  A    between atoms: _192  and  _193
REMARK   74  A    between atoms: _192  and  _195
REMARK   75  A    between atoms: _195  and  _196
REMARK   76  A    between atoms: _199  and  _201
REMARK   77  A    between atoms: _201  and  _202
REMARK   78  A    between atoms: _201  and  _204
REMARK   79  A    between atoms: _204  and  _205
REMARK   80  A    between atoms: _205  and  _206
REMARK   81  A    between atoms: _208  and  _210
REMARK   82  A    between atoms: _210  and  _211
REMARK   83  A    between atoms: _210  and  _213
REMARK   84  A    between atoms: _215  and  _217
REMARK   85  A    between atoms: _217  and  _218
REMARK   86  A    between atoms: _221  and  _223
REMARK   87  A    between atoms: _223  and  _224
REMARK   88  A    between atoms: _223  and  _226
REMARK   89  A    between atoms: _226  and  _227
REMARK   90  A    between atoms: _233  and  _235
REMARK   91  A    between atoms: _235  and  _236
REMARK   92  A    between atoms: _235  and  _238
REMARK   93  A    between atoms: _238  and  _239
REMARK   94  A    between atoms: _239  and  _240
REMARK   95  A    between atoms: _242  and  _244
REMARK   96  A    between atoms: _244  and  _245
REMARK   97  A    between atoms: _244  and  _247
REMARK   98  A    between atoms: _250  and  _252
REMARK   99  A    between atoms: _252  and  _253
REMARK  100  A    between atoms: _252  and  _255
REMARK  101  A    between atoms: _257  and  _259
REMARK  102  A    between atoms: _259  and  _260
REMARK  103  A    between atoms: _263  and  _265
REMARK  104  A    between atoms: _265  and  _266
REMARK  105  A    between atoms: _265  and  _268
REMARK  106  A    between atoms: _268  and  _269
REMARK  107  A    between atoms: _269  and  _270
REMARK  108  A    between atoms: _275  and  _277
REMARK  109  A    between atoms: _277  and  _278
REMARK  110  A    between atoms: _277  and  _280
REMARK  111  A    between atoms: _280  and  _281
REMARK  112  A    between atoms: _286  and  _287
REMARK  113  A    between atoms: _290  and  _291
REMARK  114  A    between atoms: _296  and  _298
REMARK  115  A    between atoms: _298  and  _299
REMARK  116  A    between atoms: _298  and  _301
REMARK  117  A    between atoms: _301  and  _302
REMARK  118  A    between atoms: _302  and  _303
REMARK  119  A    between atoms: _305  and  _307
REMARK  120  A    between atoms: _307  and  _308
REMARK  121  A    between atoms: _311  and  _313
REMARK  122  A    between atoms: _313  and  _314
REMARK  123  A    between atoms: _313  and  _316
REMARK  124  A    between atoms: _316  and  _317
REMARK  125  A    between atoms: _320  and  _322
REMARK  126  A    between atoms: _322  and  _323
REMARK  127  A    between atoms: _325  and  _327
REMARK  128  A    between atoms: _327  and  _328
REMARK  129  A    between atoms: _327  and  _330
REMARK  130  A    between atoms: _330  and  _331
REMARK  131  A    between atoms: _336  and  _338
REMARK  132  A    between atoms: _338  and  _339
REMARK  133  A    between atoms: _338  and  _341
REMARK  134  A    between atoms: _341  and  _342
REMARK  135  A    between atoms: _345  and  _347
REMARK  136  A    between atoms: _347  and  _348
REMARK  137  A    between atoms: _347  and  _350
REMARK  138  A    between atoms: _350  and  _351
REMARK  139  A    between atoms: _356  and  _357
REMARK  140  A    between atoms: _359  and  _361
REMARK  141  A    between atoms: _361  and  _362
REMARK  142  A    between atoms: _361  and  _364
REMARK  143  A    between atoms: _364  and  _365
REMARK  144  A    between atoms: _368  and  _370
REMARK  145  A    between atoms: _370  and  _371
REMARK  146  A    between atoms: _370  and  _373
REMARK  147  A    between atoms: _373  and  _374
REMARK  148  A    between atoms: _379  and  _380
REMARK  149  A    between atoms: _383  and  _384
REMARK  150  A    between atoms: _389  and  _391
REMARK  151  A    between atoms: _391  and  _392
REMARK  152  A    between atoms: _391  and  _394
REMARK  153  A    between atoms: _394  and  _395
REMARK  154  A    between atoms: _400  and  _401
REMARK  155  A    between atoms: _403  and  _405
REMARK  156  A    between atoms: _405  and  _406
REMARK  157  A    between atoms: _405  and  _408
REMARK  158  A    between atoms: _408  and  _409
REMARK  159  A    between atoms: _409  and  _410
REMARK  160  A    between atoms: _412  and  _414
REMARK  161  A    between atoms: _414  and  _415
REMARK  162  A    between atoms: _414  and  _417
REMARK  163  A    between atoms: _417  and  _418
REMARK  164  A    between atoms: _423  and  _424
REMARK  165  A    between atoms: _426  and  _428
REMARK  166  A    between atoms: _428  and  _429
REMARK  167  A    between atoms: _428  and  _431
REMARK  168  A    between atoms: _431  and  _432
REMARK  169  A    between atoms: _435  and  _437
REMARK  170  A    between atoms: _437  and  _438
REMARK  171  A    between atoms: _441  and  _443
REMARK  172  A    between atoms: _443  and  _444
REMARK  173  A    between atoms: _446  and  _448
REMARK  174  A    between atoms: _448  and  _449
REMARK  175  A    between atoms: _448  and  _451
REMARK  176  A    between atoms: _451  and  _452
REMARK  177  A    between atoms: _457  and  _458
REMARK  178  A    between atoms: _460  and  _462
REMARK  179  A    between atoms: _462  and  _463
REMARK  180  A    between atoms: _462  and  _465
REMARK  181  A    between atoms: _465  and  _466
REMARK  182  A    between atoms: _471  and  _473
REMARK  183  A    between atoms: _473  and  _474
REMARK  184  A    between atoms: _473  and  _476
REMARK  185  A    between atoms: _478  and  _480
REMARK  186  A    between atoms: _480  and  _481
REMARK  187  A    between atoms: _480  and  _483
REMARK  188  A    between atoms: _483  and  _484
REMARK  189  A    between atoms: _484  and  _485
REMARK  190  A    between atoms: _485  and  _486
REMARK  191  A    between atoms: _495  and  _497
REMARK  192  A    between atoms: _497  and  _498
REMARK  193  A    between atoms: _501  and  _503
REMARK  194  A    between atoms: _503  and  _504
REMARK  195  A    between atoms: _507  and  _509
REMARK  196  A    between atoms: _509  and  _510
REMARK  197  A    between atoms: _509  and  _512
REMARK  198  A    between atoms: _512  and  _513
REMARK  199  A    between atoms: _523  and  _525
REMARK  200  A    between atoms: _525  and  _526
REMARK  201  A    between atoms: _525  and  _528
REMARK  202  A    between atoms: _528  and  _529
REMARK  203  A    between atoms: _532  and  _534
REMARK  204  A    between atoms: _534  and  _535
REMARK  205  A    between atoms: _534  and  _537
REMARK  206  A    between atoms: _537  and  _538
REMARK  207  A    between atoms: _538  and  _539
REMARK  208  A    between atoms: _542  and  _544
REMARK  209  A    between atoms: _544  and  _545
REMARK  210  A    between atoms: _544  and  _547
REMARK  211  A    between atoms: _547  and  _548
REMARK  212  A    between atoms: _551  and  _553
REMARK  213  A    between atoms: _553  and  _554
REMARK  214  A    between atoms: _553  and  _556
REMARK  215  A    between atoms: _556  and  _557
REMARK  216  A    between atoms: _557  and  _558
REMARK  217  A    between atoms: _561  and  _563
REMARK  218  A    between atoms: _563  and  _564
REMARK  219  A    between atoms: _563  and  _566
REMARK  220  A    between atoms: _566  and  _567
REMARK  221  A    between atoms: _573  and  _575
REMARK  222  A    between atoms: _575  and  _576
REMARK  223  A    between atoms: _575  and  _578
REMARK  224  A    between atoms: _578  and  _579
REMARK  225  A    between atoms: _579  and  _580
REMARK  226  A    between atoms: _583  and  _585
REMARK  227  A    between atoms: _585  and  _586
REMARK  228  A    between atoms: _585  and  _588
REMARK  229  A    between atoms: _591  and  _593
REMARK  230  A    between atoms: _593  and  _594
REMARK  231  A    between atoms: _593  and  _596
REMARK                            x       y       z     vdW  Elec       q    Type
REMARK                         _______ _______ _______ _____ _____    ______ ____
ROOT
ATOM      1  O   HOH     1       7.643  12.418   9.159  0.00  0.00    +0.000 OA
ENDROOT
TORSDOF 0
REMARK  Name = ../refined-set-2016/4x5z/4x5z_pocket.pdb
REMARK  231 active torsions:
REMARK  status: ('A' for Active; 'I' for Inactive)
REMARK    1  A    between atoms: _1  and  _3
REMARK    2  A    between atoms: _3  and  _4
REMARK    3  A    between atoms: _3  and  _6
REMARK    4  A    between atoms: _6  and  _7
REMARK    5  A    between atoms: _10  and  _12
REMARK    6  A    between atoms: _12  and  _13
REMARK    7  A    between atoms: _12  and  _15
REMARK    8  A    between atoms: _15  and  _16
REMARK    9  A    between atoms: _18  and  _20
REMARK   10  A    between atoms: _20  and  _21
REMARK   11  A    between atoms: _20  and  _23
REMARK   12  A    between atoms: _23  and  _24
REMARK   13  A    between atoms: _26  and  _28
REMARK   14  A    between atoms: _28  and  _29
REMARK   15  A    between atoms: _31  and  _33
REMARK   16  A    between atoms: _33  and  _34
REMARK   17  A    between atoms: _37  and  _39
REMARK   18  A    between atoms: _39  and  _40
REMARK   19  A    between atoms: _39  and  _42
REMARK   20  A    between atoms: _42  and  _43
REMARK   21  A    between atoms: _49  and  _51
REMARK   22  A    between atoms: _51  and  _52
REMARK   23  A    between atoms: _51  and  _54
REMARK   24  A    between atoms: _54  and  _55
REMARK   25  A    between atoms: _58  and  _60
REMARK   26  A    between atoms: _60  and  _61
REMARK   27  A    between atoms: _64  and  _66
REMARK   28  A    between atoms: _66  and  _67
REMARK   29  A    between atoms: _66  and  _69
REMARK   30  A    between atoms: _69  and  _70
REMARK   31  A    between atoms: _73  and  _75
REMARK   32  A    between atoms: _75  and  _76
REMARK   33  A    between atoms: _75  and  _78
REMARK   34  A    between atoms: _78  and  _79
REMARK   35  A    between atoms: _81  and  _83
REMARK   36  A    between atoms: _83  and  _84
REMARK   37  A    between atoms: _83  and  _86
REMARK   38  A    between atoms: _86  and  _87
REMARK   39  A    between atoms: _87  and  _88
REMARK   40  A    between atoms: _91  and  _93
REMARK   41  A    between atoms: _93  and  _94
REMARK   42  A    between atoms: _93  and  _96
REMARK   43  A    between atoms: _96  and  _97
REMARK   44  A    between atoms: _100  and  _102
REMARK   45  A    between atoms: _102  and  _103
REMARK   46  A    between atoms: _102  and  _105
REMARK   47  A    between atoms: _105  and  _106
REMARK   48  A    between atoms: _111  and  _113
REMARK   49  A    between atoms: _113  and  _114
REMARK   50  A    between atoms: _117  and  _119
REMARK   51  A    between atoms: _119  and  _120
REMARK   52  A    between atoms: _119  and  _122
REMARK   53  A    between atoms: _122  and  _123
REMARK   54  A    between atoms: _133  and  _135
REMARK   55  A    between atoms: _135  and  _136
REMARK   56  A    between atoms: _135  and  _138
REMARK   57  A    between atoms: _138  and  _139
REMARK   58  A    between atoms: _142  and  _144
REMARK   59  A    between atoms: _144  and  _145
REMARK   60  A    between atoms: _144  and  _147
REMARK   61  A    between atoms: _147  and  _148
REMARK   62  A    between atoms: _158  and  _160
REMARK   63  A    between atoms: _160  and  _161
REMARK   64  A    between atoms: _160  and  _163
REMARK   65  A    between atoms: _163  and  _164
REMARK   66  A    between atoms: _169  and  _171
REMARK   67  A    between atoms: _171  and  _172
REMARK   68  A    between atoms: _174  and  _176
REMARK   69  A    between atoms: _176  and  _177
REMARK   70  A    between atoms: _176  and  _179
REMARK   71  A    between atoms: _179  and  _180
REMARK   72  A    between atoms: _190  and  _192
REMARK   73  A    between atoms: _192  and  _193
REMARK   74  A    between atoms: _192  and  _195
REMARK   75  A    between atoms: _195  and  _196
REMARK   76  A    between atoms: _199  and  _201
REMARK   77  A    between atoms: _201  and  _202
REMARK   78  A    between atoms: _201  and  _204
REMARK   79  A    between atoms: _204  and  _205
REMARK   80  A    between atoms: _205  and  _206
REMARK   81  A    between atoms: _208  and  _210
REMARK   82  A    between atoms: _210  and  _211
REMARK   83  A    between atoms: _210  and  _213
REMARK   84  A    between atoms: _215  and  _217
REMARK   85  A    between atoms: _217  and  _218
REMARK   86  A    between atoms: _221  and  _223
REMARK   87  A    between atoms: _223  and  _224
REMARK   88  A    between atoms: _223  and  _226
REMARK   89  A    between atoms: _226  and  _227
REMARK   90  A    between atoms: _233  and  _235
REMARK   91  A    between atoms: _235  and  _236
REMARK   92  A    between atoms: _235  and  _238
REMARK   93  A    between atoms: _238  and  _239
REMARK   94  A    between atoms: _239  and  _240
REMARK   95  A    between atoms: _242  and  _244
REMARK   96  A    between atoms: _244  and  _245
REMARK   97  A    between atoms: _244  and  _247
REMARK   98  A    between atoms: _250  and  _252
REMARK   99  A    between atoms: _252  and  _253
REMARK  100  A    between atoms: _252  and  _255
REMARK  101  A    between atoms: _257  and  _259
REMARK  102  A    between atoms: _259  and  _260
REMARK  103  A    between atoms: _263  and  _265
REMARK  104  A    between atoms: _265  and  _266
REMARK  105  A    between atoms: _265  and  _268
REMARK  106  A    between atoms: _268  and  _269
REMARK  107  A    between atoms: _269  and  _270
REMARK  108  A    between atoms: _275  and  _277
REMARK  109  A    between atoms: _277  and  _278
REMARK  110  A    between atoms: _277  and  _280
REMARK  111  A    between atoms: _280  and  _281
REMARK  112  A    between atoms: _286  and  _287
REMARK  113  A    between atoms: _290  and  _291
REMARK  114  A    between atoms: _296  and  _298
REMARK  115  A    between atoms: _298  and  _299
REMARK  116  A    between atoms: _298  and  _301
REMARK  117  A    between atoms: _301  and  _302
REMARK  118  A    between atoms: _302  and  _303
REMARK  119  A    between atoms: _305  and  _307
REMARK  120  A    between atoms: _307  and  _308
REMARK  121  A    between atoms: _311  and  _313
REMARK  122  A    between atoms: _313  and  _314
REMARK  123  A    between atoms: _313  and  _316
REMARK  124  A    between atoms: _316  and  _317
REMARK  125  A    between atoms: _320  and  _322
REMARK  126  A    between atoms: _322  and  _323
REMARK  127  A    between atoms: _325  and  _327
REMARK  128  A    between atoms: _327  and  _328
REMARK  129  A    between atoms: _327  and  _330
REMARK  130  A    between atoms: _330  and  _331
REMARK  131  A    between atoms: _336  and  _338
REMARK  132  A    between atoms: _338  and  _339
REMARK  133  A    between atoms: _338  and  _341
REMARK  134  A    between atoms: _341  and  _342
REMARK  135  A    between atoms: _345  and  _347
REMARK  136  A    between atoms: _347  and  _348
REMARK  137  A    between atoms: _347  and  _350
REMARK  138  A    between atoms: _350  and  _351
REMARK  139  A    between atoms: _356  and  _357
REMARK  140  A    between atoms: _359  and  _361
REMARK  141  A    between atoms: _361  and  _362
REMARK  142  A    between atoms: _361  and  _364
REMARK  143  A    between atoms: _364  and  _365
REMARK  144  A    between atoms: _368  and  _370
REMARK  145  A    between atoms: _370  and  _371
REMARK  146  A    between atoms: _370  and  _373
REMARK  147  A    between atoms: _373  and  _374
REMARK  148  A    between atoms: _379  and  _380
REMARK  149  A    between atoms: _383  and  _384
REMARK  150  A    between atoms: _389  and  _391
REMARK  151  A    between atoms: _391  and  _392
REMARK  152  A    between atoms: _391  and  _394
REMARK  153  A    between atoms: _394  and  _395
REMARK  154  A    between atoms: _400  and  _401
REMARK  155  A    between atoms: _403  and  _405
REMARK  156  A    between atoms: _405  and  _406
REMARK  157  A    between atoms: _405  and  _408
REMARK  158  A    between atoms: _408  and  _409
REMARK  159  A    between atoms: _409  and  _410
REMARK  160  A    between atoms: _412  and  _414
REMARK  161  A    between atoms: _414  and  _415
REMARK  162  A    between atoms: _414  and  _417
REMARK  163  A    between atoms: _417  and  _418
REMARK  164  A    between atoms: _423  and  _424
REMARK  165  A    between atoms: _426  and  _428
REMARK  166  A    between atoms: _428  and  _429
REMARK  167  A    between atoms: _428  and  _431
REMARK  168  A    between atoms: _431  and  _432
REMARK  169  A    between atoms: _435  and  _437
REMARK  170  A    between atoms: _437  and  _438
REMARK  171  A    between atoms: _441  and  _443
REMARK  172  A    between atoms: _443  and  _444
REMARK  173  A    between atoms: _446  and  _448
REMARK  174  A    between atoms: _448  and  _449
REMARK  175  A    between atoms: _448  and  _451
REMARK  176  A    between atoms: _451  and  _452
REMARK  177  A    between atoms: _457  and  _458
REMARK  178  A    between atoms: _460  and  _462
REMARK  179  A    between atoms: _462  and  _463
REMARK  180  A    between atoms: _462  and  _465
REMARK  181  A    between atoms: _465  and  _466
REMARK  182  A    between atoms: _471  and  _473
REMARK  183  A    between atoms: _473  and  _474
REMARK  184  A    between atoms: _473  and  _476
REMARK  185  A    between atoms: _478  and  _480
REMARK  186  A    between atoms: _480  and  _481
REMARK  187  A    between atoms: _480  and  _483
REMARK  188  A    between atoms: _483  and  _484
REMARK  189  A    between atoms: _484  and  _485
REMARK  190  A    between atoms: _485  and  _486
REMARK  191  A    between atoms: _495  and  _497
REMARK  192  A    between atoms: _497  and  _498
REMARK  193  A    between atoms: _501  and  _503
REMARK  194  A    between atoms: _503  and  _504
REMARK  195  A    between atoms: _507  and  _509
REMARK  196  A    between atoms: _509  and  _510
REMARK  197  A    between atoms: _509  and  _512
REMARK  198  A    between atoms: _512  and  _513
REMARK  199  A    between atoms: _523  and  _525
REMARK  200  A    between atoms: _525  and  _526
REMARK  201  A    between atoms: _525  and  _528
REMARK  202  A    between atoms: _528  and  _529
REMARK  203  A    between atoms: _532  and  _534
REMARK  204  A    between atoms: _534  and  _535
REMARK  205  A    between atoms: _534  and  _537
REMARK  206  A    between atoms: _537  and  _538
REMARK  207  A    between atoms: _538  and  _539
REMARK  208  A    between atoms: _542  and  _544
REMARK  209  A    between atoms: _544  and  _545
REMARK  210  A    between atoms: _544  and  _547
REMARK  211  A    between atoms: _547  and  _548
REMARK  212  A    between atoms: _551  and  _553
REMARK  213  A    between atoms: _553  and  _554
REMARK  214  A    between atoms: _553  and  _556
REMARK  215  A    between atoms: _556  and  _557
REMARK  216  A    between atoms: _557  and  _558
REMARK  217  A    between atoms: _561  and  _563
REMARK  218  A    between atoms: _563  and  _564
REMARK  219  A    between atoms: _563  and  _566
REMARK  220  A    between atoms: _566  and  _567
REMARK  221  A    between atoms: _573  and  _575
REMARK  222  A    between atoms: _575  and  _576
REMARK  223  A    between atoms: _575  and  _578
REMARK  224  A    between atoms: _578  and  _579
REMARK  225  A    between atoms: _579  and  _580
REMARK  226  A    between atoms: _583  and  _585
REMARK  227  A    between atoms: _585  and  _586
REMARK  228  A    between atoms: _585  and  _588
REMARK  229  A    between atoms: _591  and  _593
REMARK  230  A    between atoms: _593  and  _594
REMARK  231  A    between atoms: _593  and  _596
REMARK                            x       y       z     vdW  Elec       q    Type
REMARK                         _______ _______ _______ _____ _____    ______ ____
ROOT
ATOM      1  O   HOH     1       8.951  13.600   6.402  0.00  0.00    +0.000 OA
ENDROOT
TORSDOF 0
REMARK  Name = ../refined-set-2016/4x5z/4x5z_pocket.pdb
REMARK  231 active torsions:
REMARK  status: ('A' for Active; 'I' for Inactive)
REMARK    1  A    between atoms: _1  and  _3
REMARK    2  A    between atoms: _3  and  _4
REMARK    3  A    between atoms: _3  and  _6
REMARK    4  A    between atoms: _6  and  _7
REMARK    5  A    between atoms: _10  and  _12
REMARK    6  A    between atoms: _12  and  _13
REMARK    7  A    between atoms: _12  and  _15
REMARK    8  A    between atoms: _15  and  _16
REMARK    9  A    between atoms: _18  and  _20
REMARK   10  A    between atoms: _20  and  _21
REMARK   11  A    between atoms: _20  and  _23
REMARK   12  A    between atoms: _23  and  _24
REMARK   13  A    between atoms: _26  and  _28
REMARK   14  A    between atoms: _28  and  _29
REMARK   15  A    between atoms: _31  and  _33
REMARK   16  A    between atoms: _33  and  _34
REMARK   17  A    between atoms: _37  and  _39
REMARK   18  A    between atoms: _39  and  _40
REMARK   19  A    between atoms: _39  and  _42
REMARK   20  A    between atoms: _42  and  _43
REMARK   21  A    between atoms: _49  and  _51
REMARK   22  A    between atoms: _51  and  _52
REMARK   23  A    between atoms: _51  and  _54
REMARK   24  A    between atoms: _54  and  _55
REMARK   25  A    between atoms: _58  and  _60
REMARK   26  A    between atoms: _60  and  _61
REMARK   27  A    between atoms: _64  and  _66
REMARK   28  A    between atoms: _66  and  _67
REMARK   29  A    between atoms: _66  and  _69
REMARK   30  A    between atoms: _69  and  _70
REMARK   31  A    between atoms: _73  and  _75
REMARK   32  A    between atoms: _75  and  _76
REMARK   33  A    between atoms: _75  and  _78
REMARK   34  A    between atoms: _78  and  _79
REMARK   35  A    between atoms: _81  and  _83
REMARK   36  A    between atoms: _83  and  _84
REMARK   37  A    between atoms: _83  and  _86
REMARK   38  A    between atoms: _86  and  _87
REMARK   39  A    between atoms: _87  and  _88
REMARK   40  A    between atoms: _91  and  _93
REMARK   41  A    between atoms: _93  and  _94
REMARK   42  A    between atoms: _93  and  _96
REMARK   43  A    between atoms: _96  and  _97
REMARK   44  A    between atoms: _100  and  _102
REMARK   45  A    between atoms: _102  and  _103
REMARK   46  A    between atoms: _102  and  _105
REMARK   47  A    between atoms: _105  and  _106
REMARK   48  A    between atoms: _111  and  _113
REMARK   49  A    between atoms: _113  and  _114
REMARK   50  A    between atoms: _117  and  _119
REMARK   51  A    between atoms: _119  and  _120
REMARK   52  A    between atoms: _119  and  _122
REMARK   53  A    between atoms: _122  and  _123
REMARK   54  A    between atoms: _133  and  _135
REMARK   55  A    between atoms: _135  and  _136
REMARK   56  A    between atoms: _135  and  _138
REMARK   57  A    between atoms: _138  and  _139
REMARK   58  A    between atoms: _142  and  _144
REMARK   59  A    between atoms: _144  and  _145
REMARK   60  A    between atoms: _144  and  _147
REMARK   61  A    between atoms: _147  and  _148
REMARK   62  A    between atoms: _158  and  _160
REMARK   63  A    between atoms: _160  and  _161
REMARK   64  A    between atoms: _160  and  _163
REMARK   65  A    between atoms: _163  and  _164
REMARK   66  A    between atoms: _169  and  _171
REMARK   67  A    between atoms: _171  and  _172
REMARK   68  A    between atoms: _174  and  _176
REMARK   69  A    between atoms: _176  and  _177
REMARK   70  A    between atoms: _176  and  _179
REMARK   71  A    between atoms: _179  and  _180
REMARK   72  A    between atoms: _190  and  _192
REMARK   73  A    between atoms: _192  and  _193
REMARK   74  A    between atoms: _192  and  _195
REMARK   75  A    between atoms: _195  and  _196
REMARK   76  A    between atoms: _199  and  _201
REMARK   77  A    between atoms: _201  and  _202
REMARK   78  A    between atoms: _201  and  _204
REMARK   79  A    between atoms: _204  and  _205
REMARK   80  A    between atoms: _205  and  _206
REMARK   81  A    between atoms: _208  and  _210
REMARK   82  A    between atoms: _210  and  _211
REMARK   83  A    between atoms: _210  and  _213
REMARK   84  A    between atoms: _215  and  _217
REMARK   85  A    between atoms: _217  and  _218
REMARK   86  A    between atoms: _221  and  _223
REMARK   87  A    between atoms: _223  and  _224
REMARK   88  A    between atoms: _223  and  _226
REMARK   89  A    between atoms: _226  and  _227
REMARK   90  A    between atoms: _233  and  _235
REMARK   91  A    between atoms: _235  and  _236
REMARK   92  A    between atoms: _235  and  _238
REMARK   93  A    between atoms: _238  and  _239
REMARK   94  A    between atoms: _239  and  _240
REMARK   95  A    between atoms: _242  and  _244
REMARK   96  A    between atoms: _244  and  _245
REMARK   97  A    between atoms: _244  and  _247
REMARK   98  A    between atoms: _250  and  _252
REMARK   99  A    between atoms: _252  and  _253
REMARK  100  A    between atoms: _252  and  _255
REMARK  101  A    between atoms: _257  and  _259
REMARK  102  A    between atoms: _259  and  _260
REMARK  103  A    between atoms: _263  and  _265
REMARK  104  A    between atoms: _265  and  _266
REMARK  105  A    between atoms: _265  and  _268
REMARK  106  A    between atoms: _268  and  _269
REMARK  107  A    between atoms: _269  and  _270
REMARK  108  A    between atoms: _275  and  _277
REMARK  109  A    between atoms: _277  and  _278
REMARK  110  A    between atoms: _277  and  _280
REMARK  111  A    between atoms: _280  and  _281
REMARK  112  A    between atoms: _286  and  _287
REMARK  113  A    between atoms: _290  and  _291
REMARK  114  A    between atoms: _296  and  _298
REMARK  115  A    between atoms: _298  and  _299
REMARK  116  A    between atoms: _298  and  _301
REMARK  117  A    between atoms: _301  and  _302
REMARK  118  A    between atoms: _302  and  _303
REMARK  119  A    between atoms: _305  and  _307
REMARK  120  A    between atoms: _307  and  _308
REMARK  121  A    between atoms: _311  and  _313
REMARK  122  A    between atoms: _313  and  _314
REMARK  123  A    between atoms: _313  and  _316
REMARK  124  A    between atoms: _316  and  _317
REMARK  125  A    between atoms: _320  and  _322
REMARK  126  A    between atoms: _322  and  _323
REMARK  127  A    between atoms: _325  and  _327
REMARK  128  A    between atoms: _327  and  _328
REMARK  129  A    between atoms: _327  and  _330
REMARK  130  A    between atoms: _330  and  _331
REMARK  131  A    between atoms: _336  and  _338
REMARK  132  A    between atoms: _338  and  _339
REMARK  133  A    between atoms: _338  and  _341
REMARK  134  A    between atoms: _341  and  _342
REMARK  135  A    between atoms: _345  and  _347
REMARK  136  A    between atoms: _347  and  _348
REMARK  137  A    between atoms: _347  and  _350
REMARK  138  A    between atoms: _350  and  _351
REMARK  139  A    between atoms: _356  and  _357
REMARK  140  A    between atoms: _359  and  _361
REMARK  141  A    between atoms: _361  and  _362
REMARK  142  A    between atoms: _361  and  _364
REMARK  143  A    between atoms: _364  and  _365
REMARK  144  A    between atoms: _368  and  _370
REMARK  145  A    between atoms: _370  and  _371
REMARK  146  A    between atoms: _370  and  _373
REMARK  147  A    between atoms: _373  and  _374
REMARK  148  A    between atoms: _379  and  _380
REMARK  149  A    between atoms: _383  and  _384
REMARK  150  A    between atoms: _389  and  _391
REMARK  151  A    between atoms: _391  and  _392
REMARK  152  A    between atoms: _391  and  _394
REMARK  153  A    between atoms: _394  and  _395
REMARK  154  A    between atoms: _400  and  _401
REMARK  155  A    between atoms: _403  and  _405
REMARK  156  A    between atoms: _405  and  _406
REMARK  157  A    between atoms: _405  and  _408
REMARK  158  A    between atoms: _408  and  _409
REMARK  159  A    between atoms: _409  and  _410
REMARK  160  A    between atoms: _412  and  _414
REMARK  161  A    between atoms: _414  and  _415
REMARK  162  A    between atoms: _414  and  _417
REMARK  163  A    between atoms: _417  and  _418
REMARK  164  A    between atoms: _423  and  _424
REMARK  165  A    between atoms: _426  and  _428
REMARK  166  A    between atoms: _428  and  _429
REMARK  167  A    between atoms: _428  and  _431
REMARK  168  A    between atoms: _431  and  _432
REMARK  169  A    between atoms: _435  and  _437
REMARK  170  A    between atoms: _437  and  _438
REMARK  171  A    between atoms: _441  and  _443
REMARK  172  A    between atoms: _443  and  _444
REMARK  173  A    between atoms: _446  and  _448
REMARK  174  A    between atoms: _448  and  _449
REMARK  175  A    between atoms: _448  and  _451
REMARK  176  A    between atoms: _451  and  _452
REMARK  177  A    between atoms: _457  and  _458
REMARK  178  A    between atoms: _460  and  _462
REMARK  179  A    between atoms: _462  and  _463
REMARK  180  A    between atoms: _462  and  _465
REMARK  181  A    between atoms: _465  and  _466
REMARK  182  A    between atoms: _471  and  _473
REMARK  183  A    between atoms: _473  and  _474
REMARK  184  A    between atoms: _473  and  _476
REMARK  185  A    between atoms: _478  and  _480
REMARK  186  A    between atoms: _480  and  _481
REMARK  187  A    between atoms: _480  and  _483
REMARK  188  A    between atoms: _483  and  _484
REMARK  189  A    between atoms: _484  and  _485
REMARK  190  A    between atoms: _485  and  _486
REMARK  191  A    between atoms: _495  and  _497
REMARK  192  A    between atoms: _497  and  _498
REMARK  193  A    between atoms: _501  and  _503
REMARK  194  A    between atoms: _503  and  _504
REMARK  195  A    between atoms: _507  and  _509
REMARK  196  A    between atoms: _509  and  _510
REMARK  197  A    between atoms: _509  and  _512
REMARK  198  A    between atoms: _512  and  _513
REMARK  199  A    between atoms: _523  and  _525
REMARK  200  A    between atoms: _525  and  _526
REMARK  201  A    between atoms: _525  and  _528
REMARK  202  A    between atoms: _528  and  _529
REMARK  203  A    between atoms: _532  and  _534
REMARK  204  A    between atoms: _534  and  _535
REMARK  205  A    between atoms: _534  and  _537
REMARK  206  A    between atoms: _537  and  _538
REMARK  207  A    between atoms: _538  and  _539
REMARK  208  A    between atoms: _542  and  _544
REMARK  209  A    between atoms: _544  and  _545
REMARK  210  A    between atoms: _544  and  _547
REMARK  211  A    between atoms: _547  and  _548
REMARK  212  A    between atoms: _551  and  _553
REMARK  213  A    between atoms: _553  and  _554
REMARK  214  A    between atoms: _553  and  _556
REMARK  215  A    between atoms: _556  and  _557
REMARK  216  A    between atoms: _557  and  _558
REMARK  217  A    between atoms: _561  and  _563
REMARK  218  A    between atoms: _563  and  _564
REMARK  219  A    between atoms: _563  and  _566
REMARK  220  A    between atoms: _566  and  _567
REMARK  221  A    between atoms: _573  and  _575
REMARK  222  A    between atoms: _575  and  _576
REMARK  223  A    between atoms: _575  and  _578
REMARK  224  A    between atoms: _578  and  _579
REMARK  225  A    between atoms: _579  and  _580
REMARK  226  A    between atoms: _583  and  _585
REMARK  227  A    between atoms: _585  and  _586
REMARK  228  A    between atoms: _585  and  _588
REMARK  229  A    between atoms: _591  and  _593
REMARK  230  A    between atoms: _593  and  _594
REMARK  231  A    between atoms: _593  and  _596
REMARK                            x       y       z     vdW  Elec       q    Type
REMARK                         _______ _______ _______ _____ _____    ______ ____
ROOT
ATOM      1  O   HOH     1       6.433  11.108   4.217  0.00  0.00    +0.000 OA
ENDROOT
TORSDOF 0
REMARK  Name = ../refined-set-2016/4x5z/4x5z_pocket.pdb
REMARK  231 active torsions:
REMARK  status: ('A' for Active; 'I' for Inactive)
REMARK    1  A    between atoms: _1  and  _3
REMARK    2  A    between atoms: _3  and  _4
REMARK    3  A    between atoms: _3  and  _6
REMARK    4  A    between atoms: _6  and  _7
REMARK    5  A    between atoms: _10  and  _12
REMARK    6  A    between atoms: _12  and  _13
REMARK    7  A    between atoms: _12  and  _15
REMARK    8  A    between atoms: _15  and  _16
REMARK    9  A    between atoms: _18  and  _20
REMARK   10  A    between atoms: _20  and  _21
REMARK   11  A    between atoms: _20  and  _23
REMARK   12  A    between atoms: _23  and  _24
REMARK   13  A    between atoms: _26  and  _28
REMARK   14  A    between atoms: _28  and  _29
REMARK   15  A    between atoms: _31  and  _33
REMARK   16  A    between atoms: _33  and  _34
REMARK   17  A    between atoms: _37  and  _39
REMARK   18  A    between atoms: _39  and  _40
REMARK   19  A    between atoms: _39  and  _42
REMARK   20  A    between atoms: _42  and  _43
REMARK   21  A    between atoms: _49  and  _51
REMARK   22  A    between atoms: _51  and  _52
REMARK   23  A    between atoms: _51  and  _54
REMARK   24  A    between atoms: _54  and  _55
REMARK   25  A    between atoms: _58  and  _60
REMARK   26  A    between atoms: _60  and  _61
REMARK   27  A    between atoms: _64  and  _66
REMARK   28  A    between atoms: _66  and  _67
REMARK   29  A    between atoms: _66  and  _69
REMARK   30  A    between atoms: _69  and  _70
REMARK   31  A    between atoms: _73  and  _75
REMARK   32  A    between atoms: _75  and  _76
REMARK   33  A    between atoms: _75  and  _78
REMARK   34  A    between atoms: _78  and  _79
REMARK   35  A    between atoms: _81  and  _83
REMARK   36  A    between atoms: _83  and  _84
REMARK   37  A    between atoms: _83  and  _86
REMARK   38  A    between atoms: _86  and  _87
REMARK   39  A    between atoms: _87  and  _88
REMARK   40  A    between atoms: _91  and  _93
REMARK   41  A    between atoms: _93  and  _94
REMARK   42  A    between atoms: _93  and  _96
REMARK   43  A    between atoms: _96  and  _97
REMARK   44  A    between atoms: _100  and  _102
REMARK   45  A    between atoms: _102  and  _103
REMARK   46  A    between atoms: _102  and  _105
REMARK   47  A    between atoms: _105  and  _106
REMARK   48  A    between atoms: _111  and  _113
REMARK   49  A    between atoms: _113  and  _114
REMARK   50  A    between atoms: _117  and  _119
REMARK   51  A    between atoms: _119  and  _120
REMARK   52  A    between atoms: _119  and  _122
REMARK   53  A    between atoms: _122  and  _123
REMARK   54  A    between atoms: _133  and  _135
REMARK   55  A    between atoms: _135  and  _136
REMARK   56  A    between atoms: _135  and  _138
REMARK   57  A    between atoms: _138  and  _139
REMARK   58  A    between atoms: _142  and  _144
REMARK   59  A    between atoms: _144  and  _145
REMARK   60  A    between atoms: _144  and  _147
REMARK   61  A    between atoms: _147  and  _148
REMARK   62  A    between atoms: _158  and  _160
REMARK   63  A    between atoms: _160  and  _161
REMARK   64  A    between atoms: _160  and  _163
REMARK   65  A    between atoms: _163  and  _164
REMARK   66  A    between atoms: _169  and  _171
REMARK   67  A    between atoms: _171  and  _172
REMARK   68  A    between atoms: _174  and  _176
REMARK   69  A    between atoms: _176  and  _177
REMARK   70  A    between atoms: _176  and  _179
REMARK   71  A    between atoms: _179  and  _180
REMARK   72  A    between atoms: _190  and  _192
REMARK   73  A    between atoms: _192  and  _193
REMARK   74  A    between atoms: _192  and  _195
REMARK   75  A    between atoms: _195  and  _196
REMARK   76  A    between atoms: _199  and  _201
REMARK   77  A    between atoms: _201  and  _202
REMARK   78  A    between atoms: _201  and  _204
REMARK   79  A    between atoms: _204  and  _205
REMARK   80  A    between atoms: _205  and  _206
REMARK   81  A    between atoms: _208  and  _210
REMARK   82  A    between atoms: _210  and  _211
REMARK   83  A    between atoms: _210  and  _213
REMARK   84  A    between atoms: _215  and  _217
REMARK   85  A    between atoms: _217  and  _218
REMARK   86  A    between atoms: _221  and  _223
REMARK   87  A    between atoms: _223  and  _224
REMARK   88  A    between atoms: _223  and  _226
REMARK   89  A    between atoms: _226  and  _227
REMARK   90  A    between atoms: _233  and  _235
REMARK   91  A    between atoms: _235  and  _236
REMARK   92  A    between atoms: _235  and  _238
REMARK   93  A    between atoms: _238  and  _239
REMARK   94  A    between atoms: _239  and  _240
REMARK   95  A    between atoms: _242  and  _244
REMARK   96  A    between atoms: _244  and  _245
REMARK   97  A    between atoms: _244  and  _247
REMARK   98  A    between atoms: _250  and  _252
REMARK   99  A    between atoms: _252  and  _253
REMARK  100  A    between atoms: _252  and  _255
REMARK  101  A    between atoms: _257  and  _259
REMARK  102  A    between atoms: _259  and  _260
REMARK  103  A    between atoms: _263  and  _265
REMARK  104  A    between atoms: _265  and  _266
REMARK  105  A    between atoms: _265  and  _268
REMARK  106  A    between atoms: _268  and  _269
REMARK  107  A    between atoms: _269  and  _270
REMARK  108  A    between atoms: _275  and  _277
REMARK  109  A    between atoms: _277  and  _278
REMARK  110  A    between atoms: _277  and  _280
REMARK  111  A    between atoms: _280  and  _281
REMARK  112  A    between atoms: _286  and  _287
REMARK  113  A    between atoms: _290  and  _291
REMARK  114  A    between atoms: _296  and  _298
REMARK  115  A    between atoms: _298  and  _299
REMARK  116  A    between atoms: _298  and  _301
REMARK  117  A    between atoms: _301  and  _302
REMARK  118  A    between atoms: _302  and  _303
REMARK  119  A    between atoms: _305  and  _307
REMARK  120  A    between atoms: _307  and  _308
REMARK  121  A    between atoms: _311  and  _313
REMARK  122  A    between atoms: _313  and  _314
REMARK  123  A    between atoms: _313  and  _316
REMARK  124  A    between atoms: _316  and  _317
REMARK  125  A    between atoms: _320  and  _322
REMARK  126  A    between atoms: _322  and  _323
REMARK  127  A    between atoms: _325  and  _327
REMARK  128  A    between atoms: _327  and  _328
REMARK  129  A    between atoms: _327  and  _330
REMARK  130  A    between atoms: _330  and  _331
REMARK  131  A    between atoms: _336  and  _338
REMARK  132  A    between atoms: _338  and  _339
REMARK  133  A    between atoms: _338  and  _341
REMARK  134  A    between atoms: _341  and  _342
REMARK  135  A    between atoms: _345  and  _347
REMARK  136  A    between atoms: _347  and  _348
REMARK  137  A    between atoms: _347  and  _350
REMARK  138  A    between atoms: _350  and  _351
REMARK  139  A    between atoms: _356  and  _357
REMARK  140  A    between atoms: _359  and  _361
REMARK  141  A    between atoms: _361  and  _362
REMARK  142  A    between atoms: _361  and  _364
REMARK  143  A    between atoms: _364  and  _365
REMARK  144  A    between atoms: _368  and  _370
REMARK  145  A    between atoms: _370  and  _371
REMARK  146  A    between atoms: _370  and  _373
REMARK  147  A    between atoms: _373  and  _374
REMARK  148  A    between atoms: _379  and  _380
REMARK  149  A    between atoms: _383  and  _384
REMARK  150  A    between atoms: _389  and  _391
REMARK  151  A    between atoms: _391  and  _392
REMARK  152  A    between atoms: _391  and  _394
REMARK  153  A    between atoms: _394  and  _395
REMARK  154  A    between atoms: _400  and  _401
REMARK  155  A    between atoms: _403  and  _405
REMARK  156  A    between atoms: _405  and  _406
REMARK  157  A    between atoms: _405  and  _408
REMARK  158  A    between atoms: _408  and  _409
REMARK  159  A    between atoms: _409  and  _410
REMARK  160  A    between atoms: _412  and  _414
REMARK  161  A    between atoms: _414  and  _415
REMARK  162  A    between atoms: _414  and  _417
REMARK  163  A    between atoms: _417  and  _418
REMARK  164  A    between atoms: _423  and  _424
REMARK  165  A    between atoms: _426  and  _428
REMARK  166  A    between atoms: _428  and  _429
REMARK  167  A    between atoms: _428  and  _431
REMARK  168  A    between atoms: _431  and  _432
REMARK  169  A    between atoms: _435  and  _437
REMARK  170  A    between atoms: _437  and  _438
REMARK  171  A    between atoms: _441  and  _443
REMARK  172  A    between atoms: _443  and  _444
REMARK  173  A    between atoms: _446  and  _448
REMARK  174  A    between atoms: _448  and  _449
REMARK  175  A    between atoms: _448  and  _451
REMARK  176  A    between atoms: _451  and  _452
REMARK  177  A    between atoms: _457  and  _458
REMARK  178  A    between atoms: _460  and  _462
REMARK  179  A    between atoms: _462  and  _463
REMARK  180  A    between atoms: _462  and  _465
REMARK  181  A    between atoms: _465  and  _466
REMARK  182  A    between atoms: _471  and  _473
REMARK  183  A    between atoms: _473  and  _474
REMARK  184  A    between atoms: _473  and  _476
REMARK  185  A    between atoms: _478  and  _480
REMARK  186  A    between atoms: _480  and  _481
REMARK  187  A    between atoms: _480  and  _483
REMARK  188  A    between atoms: _483  and  _484
REMARK  189  A    between atoms: _484  and  _485
REMARK  190  A    between atoms: _485  and  _486
REMARK  191  A    between atoms: _495  and  _497
REMARK  192  A    between atoms: _497  and  _498
REMARK  193  A    between atoms: _501  and  _503
REMARK  194  A    between atoms: _503  and  _504
REMARK  195  A    between atoms: _507  and  _509
REMARK  196  A    between atoms: _509  and  _510
REMARK  197  A    between atoms: _509  and  _512
REMARK  198  A    between atoms: _512  and  _513
REMARK  199  A    between atoms: _523  and  _525
REMARK  200  A    between atoms: _525  and  _526
REMARK  201  A    between atoms: _525  and  _528
REMARK  202  A    between atoms: _528  and  _529
REMARK  203  A    between atoms: _532  and  _534
REMARK  204  A    between atoms: _534  and  _535
REMARK  205  A    between atoms: _534  and  _537
REMARK  206  A    between atoms: _537  and  _538
REMARK  207  A    between atoms: _538  and  _539
REMARK  208  A    between atoms: _542  and  _544
REMARK  209  A    between atoms: _544  and  _545
REMARK  210  A    between atoms: _544  and  _547
REMARK  211  A    between atoms: _547  and  _548
REMARK  212  A    between atoms: _551  and  _553
REMARK  213  A    between atoms: _553  and  _554
REMARK  214  A    between atoms: _553  and  _556
REMARK  215  A    between atoms: _556  and  _557
REMARK  216  A    between atoms: _557  and  _558
REMARK  217  A    between atoms: _561  and  _563
REMARK  218  A    between atoms: _563  and  _564
REMARK  219  A    between atoms: _563  and  _566
REMARK  220  A    between atoms: _566  and  _567
REMARK  221  A    between atoms: _573  and  _575
REMARK  222  A    between atoms: _575  and  _576
REMARK  223  A    between atoms: _575  and  _578
REMARK  224  A    between atoms: _578  and  _579
REMARK  225  A    between atoms: _579  and  _580
REMARK  226  A    between atoms: _583  and  _585
REMARK  227  A    between atoms: _585  and  _586
REMARK  228  A    between atoms: _585  and  _588
REMARK  229  A    between atoms: _591  and  _593
REMARK  230  A    between atoms: _593  and  _594
REMARK  231  A    between atoms: _593  and  _596
REMARK                            x       y       z     vdW  Elec       q    Type
REMARK                         _______ _______ _______ _____ _____    ______ ____
ROOT
ATOM      1  O   HOH     1      16.946  13.973  13.520  0.00  0.00    +0.000 OA
ENDROOT
TORSDOF 0
REMARK  Name = ../refined-set-2016/4x5z/4x5z_pocket.pdb
REMARK  231 active torsions:
REMARK  status: ('A' for Active; 'I' for Inactive)
REMARK    1  A    between atoms: _1  and  _3
REMARK    2  A    between atoms: _3  and  _4
REMARK    3  A    between atoms: _3  and  _6
REMARK    4  A    between atoms: _6  and  _7
REMARK    5  A    between atoms: _10  and  _12
REMARK    6  A    between atoms: _12  and  _13
REMARK    7  A    between atoms: _12  and  _15
REMARK    8  A    between atoms: _15  and  _16
REMARK    9  A    between atoms: _18  and  _20
REMARK   10  A    between atoms: _20  and  _21
REMARK   11  A    between atoms: _20  and  _23
REMARK   12  A    between atoms: _23  and  _24
REMARK   13  A    between atoms: _26  and  _28
REMARK   14  A    between atoms: _28  and  _29
REMARK   15  A    between atoms: _31  and  _33
REMARK   16  A    between atoms: _33  and  _34
REMARK   17  A    between atoms: _37  and  _39
REMARK   18  A    between atoms: _39  and  _40
REMARK   19  A    between atoms: _39  and  _42
REMARK   20  A    between atoms: _42  and  _43
REMARK   21  A    between atoms: _49  and  _51
REMARK   22  A    between atoms: _51  and  _52
REMARK   23  A    between atoms: _51  and  _54
REMARK   24  A    between atoms: _54  and  _55
REMARK   25  A    between atoms: _58  and  _60
REMARK   26  A    between atoms: _60  and  _61
REMARK   27  A    between atoms: _64  and  _66
REMARK   28  A    between atoms: _66  and  _67
REMARK   29  A    between atoms: _66  and  _69
REMARK   30  A    between atoms: _69  and  _70
REMARK   31  A    between atoms: _73  and  _75
REMARK   32  A    between atoms: _75  and  _76
REMARK   33  A    between atoms: _75  and  _78
REMARK   34  A    between atoms: _78  and  _79
REMARK   35  A    between atoms: _81  and  _83
REMARK   36  A    between atoms: _83  and  _84
REMARK   37  A    between atoms: _83  and  _86
REMARK   38  A    between atoms: _86  and  _87
REMARK   39  A    between atoms: _87  and  _88
REMARK   40  A    between atoms: _91  and  _93
REMARK   41  A    between atoms: _93  and  _94
REMARK   42  A    between atoms: _93  and  _96
REMARK   43  A    between atoms: _96  and  _97
REMARK   44  A    between atoms: _100  and  _102
REMARK   45  A    between atoms: _102  and  _103
REMARK   46  A    between atoms: _102  and  _105
REMARK   47  A    between atoms: _105  and  _106
REMARK   48  A    between atoms: _111  and  _113
REMARK   49  A    between atoms: _113  and  _114
REMARK   50  A    between atoms: _117  and  _119
REMARK   51  A    between atoms: _119  and  _120
REMARK   52  A    between atoms: _119  and  _122
REMARK   53  A    between atoms: _122  and  _123
REMARK   54  A    between atoms: _133  and  _135
REMARK   55  A    between atoms: _135  and  _136
REMARK   56  A    between atoms: _135  and  _138
REMARK   57  A    between atoms: _138  and  _139
REMARK   58  A    between atoms: _142  and  _144
REMARK   59  A    between atoms: _144  and  _145
REMARK   60  A    between atoms: _144  and  _147
REMARK   61  A    between atoms: _147  and  _148
REMARK   62  A    between atoms: _158  and  _160
REMARK   63  A    between atoms: _160  and  _161
REMARK   64  A    between atoms: _160  and  _163
REMARK   65  A    between atoms: _163  and  _164
REMARK   66  A    between atoms: _169  and  _171
REMARK   67  A    between atoms: _171  and  _172
REMARK   68  A    between atoms: _174  and  _176
REMARK   69  A    between atoms: _176  and  _177
REMARK   70  A    between atoms: _176  and  _179
REMARK   71  A    between atoms: _179  and  _180
REMARK   72  A    between atoms: _190  and  _192
REMARK   73  A    between atoms: _192  and  _193
REMARK   74  A    between atoms: _192  and  _195
REMARK   75  A    between atoms: _195  and  _196
REMARK   76  A    between atoms: _199  and  _201
REMARK   77  A    between atoms: _201  and  _202
REMARK   78  A    between atoms: _201  and  _204
REMARK   79  A    between atoms: _204  and  _205
REMARK   80  A    between atoms: _205  and  _206
REMARK   81  A    between atoms: _208  and  _210
REMARK   82  A    between atoms: _210  and  _211
REMARK   83  A    between atoms: _210  and  _213
REMARK   84  A    between atoms: _215  and  _217
REMARK   85  A    between atoms: _217  and  _218
REMARK   86  A    between atoms: _221  and  _223
REMARK   87  A    between atoms: _223  and  _224
REMARK   88  A    between atoms: _223  and  _226
REMARK   89  A    between atoms: _226  and  _227
REMARK   90  A    between atoms: _233  and  _235
REMARK   91  A    between atoms: _235  and  _236
REMARK   92  A    between atoms: _235  and  _238
REMARK   93  A    between atoms: _238  and  _239
REMARK   94  A    between atoms: _239  and  _240
REMARK   95  A    between atoms: _242  and  _244
REMARK   96  A    between atoms: _244  and  _245
REMARK   97  A    between atoms: _244  and  _247
REMARK   98  A    between atoms: _250  and  _252
REMARK   99  A    between atoms: _252  and  _253
REMARK  100  A    between atoms: _252  and  _255
REMARK  101  A    between atoms: _257  and  _259
REMARK  102  A    between atoms: _259  and  _260
REMARK  103  A    between atoms: _263  and  _265
REMARK  104  A    between atoms: _265  and  _266
REMARK  105  A    between atoms: _265  and  _268
REMARK  106  A    between atoms: _268  and  _269
REMARK  107  A    between atoms: _269  and  _270
REMARK  108  A    between atoms: _275  and  _277
REMARK  109  A    between atoms: _277  and  _278
REMARK  110  A    between atoms: _277  and  _280
REMARK  111  A    between atoms: _280  and  _281
REMARK  112  A    between atoms: _286  and  _287
REMARK  113  A    between atoms: _290  and  _291
REMARK  114  A    between atoms: _296  and  _298
REMARK  115  A    between atoms: _298  and  _299
REMARK  116  A    between atoms: _298  and  _301
REMARK  117  A    between atoms: _301  and  _302
REMARK  118  A    between atoms: _302  and  _303
REMARK  119  A    between atoms: _305  and  _307
REMARK  120  A    between atoms: _307  and  _308
REMARK  121  A    between atoms: _311  and  _313
REMARK  122  A    between atoms: _313  and  _314
REMARK  123  A    between atoms: _313  and  _316
REMARK  124  A    between atoms: _316  and  _317
REMARK  125  A    between atoms: _320  and  _322
REMARK  126  A    between atoms: _322  and  _323
REMARK  127  A    between atoms: _325  and  _327
REMARK  128  A    between atoms: _327  and  _328
REMARK  129  A    between atoms: _327  and  _330
REMARK  130  A    between atoms: _330  and  _331
REMARK  131  A    between atoms: _336  and  _338
REMARK  132  A    between atoms: _338  and  _339
REMARK  133  A    between atoms: _338  and  _341
REMARK  134  A    between atoms: _341  and  _342
REMARK  135  A    between atoms: _345  and  _347
REMARK  136  A    between atoms: _347  and  _348
REMARK  137  A    between atoms: _347  and  _350
REMARK  138  A    between atoms: _350  and  _351
REMARK  139  A    between atoms: _356  and  _357
REMARK  140  A    between atoms: _359  and  _361
REMARK  141  A    between atoms: _361  and  _362
REMARK  142  A    between atoms: _361  and  _364
REMARK  143  A    between atoms: _364  and  _365
REMARK  144  A    between atoms: _368  and  _370
REMARK  145  A    between atoms: _370  and  _371
REMARK  146  A    between atoms: _370  and  _373
REMARK  147  A    between atoms: _373  and  _374
REMARK  148  A    between atoms: _379  and  _380
REMARK  149  A    between atoms: _383  and  _384
REMARK  150  A    between atoms: _389  and  _391
REMARK  151  A    between atoms: _391  and  _392
REMARK  152  A    between atoms: _391  and  _394
REMARK  153  A    between atoms: _394  and  _395
REMARK  154  A    between atoms: _400  and  _401
REMARK  155  A    between atoms: _403  and  _405
REMARK  156  A    between atoms: _405  and  _406
REMARK  157  A    between atoms: _405  and  _408
REMARK  158  A    between atoms: _408  and  _409
REMARK  159  A    between atoms: _409  and  _410
REMARK  160  A    between atoms: _412  and  _414
REMARK  161  A    between atoms: _414  and  _415
REMARK  162  A    between atoms: _414  and  _417
REMARK  163  A    between atoms: _417  and  _418
REMARK  164  A    between atoms: _423  and  _424
REMARK  165  A    between atoms: _426  and  _428
REMARK  166  A    between atoms: _428  and  _429
REMARK  167  A    between atoms: _428  and  _431
REMARK  168  A    between atoms: _431  and  _432
REMARK  169  A    between atoms: _435  and  _437
REMARK  170  A    between atoms: _437  and  _438
REMARK  171  A    between atoms: _441  and  _443
REMARK  172  A    between atoms: _443  and  _444
REMARK  173  A    between atoms: _446  and  _448
REMARK  174  A    between atoms: _448  and  _449
REMARK  175  A    between atoms: _448  and  _451
REMARK  176  A    between atoms: _451  and  _452
REMARK  177  A    between atoms: _457  and  _458
REMARK  178  A    between atoms: _460  and  _462
REMARK  179  A    between atoms: _462  and  _463
REMARK  180  A    between atoms: _462  and  _465
REMARK  181  A    between atoms: _465  and  _466
REMARK  182  A    between atoms: _471  and  _473
REMARK  183  A    between atoms: _473  and  _474
REMARK  184  A    between atoms: _473  and  _476
REMARK  185  A    between atoms: _478  and  _480
REMARK  186  A    between atoms: _480  and  _481
REMARK  187  A    between atoms: _480  and  _483
REMARK  188  A    between atoms: _483  and  _484
REMARK  189  A    between atoms: _484  and  _485
REMARK  190  A    between atoms: _485  and  _486
REMARK  191  A    between atoms: _495  and  _497
REMARK  192  A    between atoms: _497  and  _498
REMARK  193  A    between atoms: _501  and  _503
REMARK  194  A    between atoms: _503  and  _504
REMARK  195  A    between atoms: _507  and  _509
REMARK  196  A    between atoms: _509  and  _510
REMARK  197  A    between atoms: _509  and  _512
REMARK  198  A    between atoms: _512  and  _513
REMARK  199  A    between atoms: _523  and  _525
REMARK  200  A    between atoms: _525  and  _526
REMARK  201  A    between atoms: _525  and  _528
REMARK  202  A    between atoms: _528  and  _529
REMARK  203  A    between atoms: _532  and  _534
REMARK  204  A    between atoms: _534  and  _535
REMARK  205  A    between atoms: _534  and  _537
REMARK  206  A    between atoms: _537  and  _538
REMARK  207  A    between atoms: _538  and  _539
REMARK  208  A    between atoms: _542  and  _544
REMARK  209  A    between atoms: _544  and  _545
REMARK  210  A    between atoms: _544  and  _547
REMARK  211  A    between atoms: _547  and  _548
REMARK  212  A    between atoms: _551  and  _553
REMARK  213  A    between atoms: _553  and  _554
REMARK  214  A    between atoms: _553  and  _556
REMARK  215  A    between atoms: _556  and  _557
REMARK  216  A    between atoms: _557  and  _558
REMARK  217  A    between atoms: _561  and  _563
REMARK  218  A    between atoms: _563  and  _564
REMARK  219  A    between atoms: _563  and  _566
REMARK  220  A    between atoms: _566  and  _567
REMARK  221  A    between atoms: _573  and  _575
REMARK  222  A    between atoms: _575  and  _576
REMARK  223  A    between atoms: _575  and  _578
REMARK  224  A    between atoms: _578  and  _579
REMARK  225  A    between atoms: _579  and  _580
REMARK  226  A    between atoms: _583  and  _585
REMARK  227  A    between atoms: _585  and  _586
REMARK  228  A    between atoms: _585  and  _588
REMARK  229  A    between atoms: _591  and  _593
REMARK  230  A    between atoms: _593  and  _594
REMARK  231  A    between atoms: _593  and  _596
REMARK                            x       y       z     vdW  Elec       q    Type
REMARK                         _______ _______ _______ _____ _____    ______ ____
ROOT
ATOM      1  O   HOH     1       4.363  13.155   5.318  0.00  0.00    +0.000 OA
ENDROOT
TORSDOF 0
REMARK  Name = ../refined-set-2016/4x5z/4x5z_pocket.pdb
REMARK  231 active torsions:
REMARK  status: ('A' for Active; 'I' for Inactive)
REMARK    1  A    between atoms: _1  and  _3
REMARK    2  A    between atoms: _3  and  _4
REMARK    3  A    between atoms: _3  and  _6
REMARK    4  A    between atoms: _6  and  _7
REMARK    5  A    between atoms: _10  and  _12
REMARK    6  A    between atoms: _12  and  _13
REMARK    7  A    between atoms: _12  and  _15
REMARK    8  A    between atoms: _15  and  _16
REMARK    9  A    between atoms: _18  and  _20
REMARK   10  A    between atoms: _20  and  _21
REMARK   11  A    between atoms: _20  and  _23
REMARK   12  A    between atoms: _23  and  _24
REMARK   13  A    between atoms: _26  and  _28
REMARK   14  A    between atoms: _28  and  _29
REMARK   15  A    between atoms: _31  and  _33
REMARK   16  A    between atoms: _33  and  _34
REMARK   17  A    between atoms: _37  and  _39
REMARK   18  A    between atoms: _39  and  _40
REMARK   19  A    between atoms: _39  and  _42
REMARK   20  A    between atoms: _42  and  _43
REMARK   21  A    between atoms: _49  and  _51
REMARK   22  A    between atoms: _51  and  _52
REMARK   23  A    between atoms: _51  and  _54
REMARK   24  A    between atoms: _54  and  _55
REMARK   25  A    between atoms: _58  and  _60
REMARK   26  A    between atoms: _60  and  _61
REMARK   27  A    between atoms: _64  and  _66
REMARK   28  A    between atoms: _66  and  _67
REMARK   29  A    between atoms: _66  and  _69
REMARK   30  A    between atoms: _69  and  _70
REMARK   31  A    between atoms: _73  and  _75
REMARK   32  A    between atoms: _75  and  _76
REMARK   33  A    between atoms: _75  and  _78
REMARK   34  A    between atoms: _78  and  _79
REMARK   35  A    between atoms: _81  and  _83
REMARK   36  A    between atoms: _83  and  _84
REMARK   37  A    between atoms: _83  and  _86
REMARK   38  A    between atoms: _86  and  _87
REMARK   39  A    between atoms: _87  and  _88
REMARK   40  A    between atoms: _91  and  _93
REMARK   41  A    between atoms: _93  and  _94
REMARK   42  A    between atoms: _93  and  _96
REMARK   43  A    between atoms: _96  and  _97
REMARK   44  A    between atoms: _100  and  _102
REMARK   45  A    between atoms: _102  and  _103
REMARK   46  A    between atoms: _102  and  _105
REMARK   47  A    between atoms: _105  and  _106
REMARK   48  A    between atoms: _111  and  _113
REMARK   49  A    between atoms: _113  and  _114
REMARK   50  A    between atoms: _117  and  _119
REMARK   51  A    between atoms: _119  and  _120
REMARK   52  A    between atoms: _119  and  _122
REMARK   53  A    between atoms: _122  and  _123
REMARK   54  A    between atoms: _133  and  _135
REMARK   55  A    between atoms: _135  and  _136
REMARK   56  A    between atoms: _135  and  _138
REMARK   57  A    between atoms: _138  and  _139
REMARK   58  A    between atoms: _142  and  _144
REMARK   59  A    between atoms: _144  and  _145
REMARK   60  A    between atoms: _144  and  _147
REMARK   61  A    between atoms: _147  and  _148
REMARK   62  A    between atoms: _158  and  _160
REMARK   63  A    between atoms: _160  and  _161
REMARK   64  A    between atoms: _160  and  _163
REMARK   65  A    between atoms: _163  and  _164
REMARK   66  A    between atoms: _169  and  _171
REMARK   67  A    between atoms: _171  and  _172
REMARK   68  A    between atoms: _174  and  _176
REMARK   69  A    between atoms: _176  and  _177
REMARK   70  A    between atoms: _176  and  _179
REMARK   71  A    between atoms: _179  and  _180
REMARK   72  A    between atoms: _190  and  _192
REMARK   73  A    between atoms: _192  and  _193
REMARK   74  A    between atoms: _192  and  _195
REMARK   75  A    between atoms: _195  and  _196
REMARK   76  A    between atoms: _199  and  _201
REMARK   77  A    between atoms: _201  and  _202
REMARK   78  A    between atoms: _201  and  _204
REMARK   79  A    between atoms: _204  and  _205
REMARK   80  A    between atoms: _205  and  _206
REMARK   81  A    between atoms: _208  and  _210
REMARK   82  A    between atoms: _210  and  _211
REMARK   83  A    between atoms: _210  and  _213
REMARK   84  A    between atoms: _215  and  _217
REMARK   85  A    between atoms: _217  and  _218
REMARK   86  A    between atoms: _221  and  _223
REMARK   87  A    between atoms: _223  and  _224
REMARK   88  A    between atoms: _223  and  _226
REMARK   89  A    between atoms: _226  and  _227
REMARK   90  A    between atoms: _233  and  _235
REMARK   91  A    between atoms: _235  and  _236
REMARK   92  A    between atoms: _235  and  _238
REMARK   93  A    between atoms: _238  and  _239
REMARK   94  A    between atoms: _239  and  _240
REMARK   95  A    between atoms: _242  and  _244
REMARK   96  A    between atoms: _244  and  _245
REMARK   97  A    between atoms: _244  and  _247
REMARK   98  A    between atoms: _250  and  _252
REMARK   99  A    between atoms: _252  and  _253
REMARK  100  A    between atoms: _252  and  _255
REMARK  101  A    between atoms: _257  and  _259
REMARK  102  A    between atoms: _259  and  _260
REMARK  103  A    between atoms: _263  and  _265
REMARK  104  A    between atoms: _265  and  _266
REMARK  105  A    between atoms: _265  and  _268
REMARK  106  A    between atoms: _268  and  _269
REMARK  107  A    between atoms: _269  and  _270
REMARK  108  A    between atoms: _275  and  _277
REMARK  109  A    between atoms: _277  and  _278
REMARK  110  A    between atoms: _277  and  _280
REMARK  111  A    between atoms: _280  and  _281
REMARK  112  A    between atoms: _286  and  _287
REMARK  113  A    between atoms: _290  and  _291
REMARK  114  A    between atoms: _296  and  _298
REMARK  115  A    between atoms: _298  and  _299
REMARK  116  A    between atoms: _298  and  _301
REMARK  117  A    between atoms: _301  and  _302
REMARK  118  A    between atoms: _302  and  _303
REMARK  119  A    between atoms: _305  and  _307
REMARK  120  A    between atoms: _307  and  _308
REMARK  121  A    between atoms: _311  and  _313
REMARK  122  A    between atoms: _313  and  _314
REMARK  123  A    between atoms: _313  and  _316
REMARK  124  A    between atoms: _316  and  _317
REMARK  125  A    between atoms: _320  and  _322
REMARK  126  A    between atoms: _322  and  _323
REMARK  127  A    between atoms: _325  and  _327
REMARK  128  A    between atoms: _327  and  _328
REMARK  129  A    between atoms: _327  and  _330
REMARK  130  A    between atoms: _330  and  _331
REMARK  131  A    between atoms: _336  and  _338
REMARK  132  A    between atoms: _338  and  _339
REMARK  133  A    between atoms: _338  and  _341
REMARK  134  A    between atoms: _341  and  _342
REMARK  135  A    between atoms: _345  and  _347
REMARK  136  A    between atoms: _347  and  _348
REMARK  137  A    between atoms: _347  and  _350
REMARK  138  A    between atoms: _350  and  _351
REMARK  139  A    between atoms: _356  and  _357
REMARK  140  A    between atoms: _359  and  _361
REMARK  141  A    between atoms: _361  and  _362
REMARK  142  A    between atoms: _361  and  _364
REMARK  143  A    between atoms: _364  and  _365
REMARK  144  A    between atoms: _368  and  _370
REMARK  145  A    between atoms: _370  and  _371
REMARK  146  A    between atoms: _370  and  _373
REMARK  147  A    between atoms: _373  and  _374
REMARK  148  A    between atoms: _379  and  _380
REMARK  149  A    between atoms: _383  and  _384
REMARK  150  A    between atoms: _389  and  _391
REMARK  151  A    between atoms: _391  and  _392
REMARK  152  A    between atoms: _391  and  _394
REMARK  153  A    between atoms: _394  and  _395
REMARK  154  A    between atoms: _400  and  _401
REMARK  155  A    between atoms: _403  and  _405
REMARK  156  A    between atoms: _405  and  _406
REMARK  157  A    between atoms: _405  and  _408
REMARK  158  A    between atoms: _408  and  _409
REMARK  159  A    between atoms: _409  and  _410
REMARK  160  A    between atoms: _412  and  _414
REMARK  161  A    between atoms: _414  and  _415
REMARK  162  A    between atoms: _414  and  _417
REMARK  163  A    between atoms: _417  and  _418
REMARK  164  A    between atoms: _423  and  _424
REMARK  165  A    between atoms: _426  and  _428
REMARK  166  A    between atoms: _428  and  _429
REMARK  167  A    between atoms: _428  and  _431
REMARK  168  A    between atoms: _431  and  _432
REMARK  169  A    between atoms: _435  and  _437
REMARK  170  A    between atoms: _437  and  _438
REMARK  171  A    between atoms: _441  and  _443
REMARK  172  A    between atoms: _443  and  _444
REMARK  173  A    between atoms: _446  and  _448
REMARK  174  A    between atoms: _448  and  _449
REMARK  175  A    between atoms: _448  and  _451
REMARK  176  A    between atoms: _451  and  _452
REMARK  177  A    between atoms: _457  and  _458
REMARK  178  A    between atoms: _460  and  _462
REMARK  179  A    between atoms: _462  and  _463
REMARK  180  A    between atoms: _462  and  _465
REMARK  181  A    between atoms: _465  and  _466
REMARK  182  A    between atoms: _471  and  _473
REMARK  183  A    between atoms: _473  and  _474
REMARK  184  A    between atoms: _473  and  _476
REMARK  185  A    between atoms: _478  and  _480
REMARK  186  A    between atoms: _480  and  _481
REMARK  187  A    between atoms: _480  and  _483
REMARK  188  A    between atoms: _483  and  _484
REMARK  189  A    between atoms: _484  and  _485
REMARK  190  A    between atoms: _485  and  _486
REMARK  191  A    between atoms: _495  and  _497
REMARK  192  A    between atoms: _497  and  _498
REMARK  193  A    between atoms: _501  and  _503
REMARK  194  A    between atoms: _503  and  _504
REMARK  195  A    between atoms: _507  and  _509
REMARK  196  A    between atoms: _509  and  _510
REMARK  197  A    between atoms: _509  and  _512
REMARK  198  A    between atoms: _512  and  _513
REMARK  199  A    between atoms: _523  and  _525
REMARK  200  A    between atoms: _525  and  _526
REMARK  201  A    between atoms: _525  and  _528
REMARK  202  A    between atoms: _528  and  _529
REMARK  203  A    between atoms: _532  and  _534
REMARK  204  A    between atoms: _534  and  _535
REMARK  205  A    between atoms: _534  and  _537
REMARK  206  A    between atoms: _537  and  _538
REMARK  207  A    between atoms: _538  and  _539
REMARK  208  A    between atoms: _542  and  _544
REMARK  209  A    between atoms: _544  and  _545
REMARK  210  A    between atoms: _544  and  _547
REMARK  211  A    between atoms: _547  and  _548
REMARK  212  A    between atoms: _551  and  _553
REMARK  213  A    between atoms: _553  and  _554
REMARK  214  A    between atoms: _553  and  _556
REMARK  215  A    between atoms: _556  and  _557
REMARK  216  A    between atoms: _557  and  _558
REMARK  217  A    between atoms: _561  and  _563
REMARK  218  A    between atoms: _563  and  _564
REMARK  219  A    between atoms: _563  and  _566
REMARK  220  A    between atoms: _566  and  _567
REMARK  221  A    between atoms: _573  and  _575
REMARK  222  A    between atoms: _575  and  _576
REMARK  223  A    between atoms: _575  and  _578
REMARK  224  A    between atoms: _578  and  _579
REMARK  225  A    between atoms: _579  and  _580
REMARK  226  A    between atoms: _583  and  _585
REMARK  227  A    between atoms: _585  and  _586
REMARK  228  A    between atoms: _585  and  _588
REMARK  229  A    between atoms: _591  and  _593
REMARK  230  A    between atoms: _593  and  _594
REMARK  231  A    between atoms: _593  and  _596
REMARK                            x       y       z     vdW  Elec       q    Type
REMARK                         _______ _______ _______ _____ _____    ______ ____
ROOT
ATOM      1  O   HOH     1      13.662  15.527  10.463  0.00  0.00    +0.000 OA
ENDROOT
TORSDOF 0
REMARK  Name = ../refined-set-2016/4x5z/4x5z_pocket.pdb
REMARK  231 active torsions:
REMARK  status: ('A' for Active; 'I' for Inactive)
REMARK    1  A    between atoms: _1  and  _3
REMARK    2  A    between atoms: _3  and  _4
REMARK    3  A    between atoms: _3  and  _6
REMARK    4  A    between atoms: _6  and  _7
REMARK    5  A    between atoms: _10  and  _12
REMARK    6  A    between atoms: _12  and  _13
REMARK    7  A    between atoms: _12  and  _15
REMARK    8  A    between atoms: _15  and  _16
REMARK    9  A    between atoms: _18  and  _20
REMARK   10  A    between atoms: _20  and  _21
REMARK   11  A    between atoms: _20  and  _23
REMARK   12  A    between atoms: _23  and  _24
REMARK   13  A    between atoms: _26  and  _28
REMARK   14  A    between atoms: _28  and  _29
REMARK   15  A    between atoms: _31  and  _33
REMARK   16  A    between atoms: _33  and  _34
REMARK   17  A    between atoms: _37  and  _39
REMARK   18  A    between atoms: _39  and  _40
REMARK   19  A    between atoms: _39  and  _42
REMARK   20  A    between atoms: _42  and  _43
REMARK   21  A    between atoms: _49  and  _51
REMARK   22  A    between atoms: _51  and  _52
REMARK   23  A    between atoms: _51  and  _54
REMARK   24  A    between atoms: _54  and  _55
REMARK   25  A    between atoms: _58  and  _60
REMARK   26  A    between atoms: _60  and  _61
REMARK   27  A    between atoms: _64  and  _66
REMARK   28  A    between atoms: _66  and  _67
REMARK   29  A    between atoms: _66  and  _69
REMARK   30  A    between atoms: _69  and  _70
REMARK   31  A    between atoms: _73  and  _75
REMARK   32  A    between atoms: _75  and  _76
REMARK   33  A    between atoms: _75  and  _78
REMARK   34  A    between atoms: _78  and  _79
REMARK   35  A    between atoms: _81  and  _83
REMARK   36  A    between atoms: _83  and  _84
REMARK   37  A    between atoms: _83  and  _86
REMARK   38  A    between atoms: _86  and  _87
REMARK   39  A    between atoms: _87  and  _88
REMARK   40  A    between atoms: _91  and  _93
REMARK   41  A    between atoms: _93  and  _94
REMARK   42  A    between atoms: _93  and  _96
REMARK   43  A    between atoms: _96  and  _97
REMARK   44  A    between atoms: _100  and  _102
REMARK   45  A    between atoms: _102  and  _103
REMARK   46  A    between atoms: _102  and  _105
REMARK   47  A    between atoms: _105  and  _106
REMARK   48  A    between atoms: _111  and  _113
REMARK   49  A    between atoms: _113  and  _114
REMARK   50  A    between atoms: _117  and  _119
REMARK   51  A    between atoms: _119  and  _120
REMARK   52  A    between atoms: _119  and  _122
REMARK   53  A    between atoms: _122  and  _123
REMARK   54  A    between atoms: _133  and  _135
REMARK   55  A    between atoms: _135  and  _136
REMARK   56  A    between atoms: _135  and  _138
REMARK   57  A    between atoms: _138  and  _139
REMARK   58  A    between atoms: _142  and  _144
REMARK   59  A    between atoms: _144  and  _145
REMARK   60  A    between atoms: _144  and  _147
REMARK   61  A    between atoms: _147  and  _148
REMARK   62  A    between atoms: _158  and  _160
REMARK   63  A    between atoms: _160  and  _161
REMARK   64  A    between atoms: _160  and  _163
REMARK   65  A    between atoms: _163  and  _164
REMARK   66  A    between atoms: _169  and  _171
REMARK   67  A    between atoms: _171  and  _172
REMARK   68  A    between atoms: _174  and  _176
REMARK   69  A    between atoms: _176  and  _177
REMARK   70  A    between atoms: _176  and  _179
REMARK   71  A    between atoms: _179  and  _180
REMARK   72  A    between atoms: _190  and  _192
REMARK   73  A    between atoms: _192  and  _193
REMARK   74  A    between atoms: _192  and  _195
REMARK   75  A    between atoms: _195  and  _196
REMARK   76  A    between atoms: _199  and  _201
REMARK   77  A    between atoms: _201  and  _202
REMARK   78  A    between atoms: _201  and  _204
REMARK   79  A    between atoms: _204  and  _205
REMARK   80  A    between atoms: _205  and  _206
REMARK   81  A    between atoms: _208  and  _210
REMARK   82  A    between atoms: _210  and  _211
REMARK   83  A    between atoms: _210  and  _213
REMARK   84  A    between atoms: _215  and  _217
REMARK   85  A    between atoms: _217  and  _218
REMARK   86  A    between atoms: _221  and  _223
REMARK   87  A    between atoms: _223  and  _224
REMARK   88  A    between atoms: _223  and  _226
REMARK   89  A    between atoms: _226  and  _227
REMARK   90  A    between atoms: _233  and  _235
REMARK   91  A    between atoms: _235  and  _236
REMARK   92  A    between atoms: _235  and  _238
REMARK   93  A    between atoms: _238  and  _239
REMARK   94  A    between atoms: _239  and  _240
REMARK   95  A    between atoms: _242  and  _244
REMARK   96  A    between atoms: _244  and  _245
REMARK   97  A    between atoms: _244  and  _247
REMARK   98  A    between atoms: _250  and  _252
REMARK   99  A    between atoms: _252  and  _253
REMARK  100  A    between atoms: _252  and  _255
REMARK  101  A    between atoms: _257  and  _259
REMARK  102  A    between atoms: _259  and  _260
REMARK  103  A    between atoms: _263  and  _265
REMARK  104  A    between atoms: _265  and  _266
REMARK  105  A    between atoms: _265  and  _268
REMARK  106  A    between atoms: _268  and  _269
REMARK  107  A    between atoms: _269  and  _270
REMARK  108  A    between atoms: _275  and  _277
REMARK  109  A    between atoms: _277  and  _278
REMARK  110  A    between atoms: _277  and  _280
REMARK  111  A    between atoms: _280  and  _281
REMARK  112  A    between atoms: _286  and  _287
REMARK  113  A    between atoms: _290  and  _291
REMARK  114  A    between atoms: _296  and  _298
REMARK  115  A    between atoms: _298  and  _299
REMARK  116  A    between atoms: _298  and  _301
REMARK  117  A    between atoms: _301  and  _302
REMARK  118  A    between atoms: _302  and  _303
REMARK  119  A    between atoms: _305  and  _307
REMARK  120  A    between atoms: _307  and  _308
REMARK  121  A    between atoms: _311  and  _313
REMARK  122  A    between atoms: _313  and  _314
REMARK  123  A    between atoms: _313  and  _316
REMARK  124  A    between atoms: _316  and  _317
REMARK  125  A    between atoms: _320  and  _322
REMARK  126  A    between atoms: _322  and  _323
REMARK  127  A    between atoms: _325  and  _327
REMARK  128  A    between atoms: _327  and  _328
REMARK  129  A    between atoms: _327  and  _330
REMARK  130  A    between atoms: _330  and  _331
REMARK  131  A    between atoms: _336  and  _338
REMARK  132  A    between atoms: _338  and  _339
REMARK  133  A    between atoms: _338  and  _341
REMARK  134  A    between atoms: _341  and  _342
REMARK  135  A    between atoms: _345  and  _347
REMARK  136  A    between atoms: _347  and  _348
REMARK  137  A    between atoms: _347  and  _350
REMARK  138  A    between atoms: _350  and  _351
REMARK  139  A    between atoms: _356  and  _357
REMARK  140  A    between atoms: _359  and  _361
REMARK  141  A    between atoms: _361  and  _362
REMARK  142  A    between atoms: _361  and  _364
REMARK  143  A    between atoms: _364  and  _365
REMARK  144  A    between atoms: _368  and  _370
REMARK  145  A    between atoms: _370  and  _371
REMARK  146  A    between atoms: _370  and  _373
REMARK  147  A    between atoms: _373  and  _374
REMARK  148  A    between atoms: _379  and  _380
REMARK  149  A    between atoms: _383  and  _384
REMARK  150  A    between atoms: _389  and  _391
REMARK  151  A    between atoms: _391  and  _392
REMARK  152  A    between atoms: _391  and  _394
REMARK  153  A    between atoms: _394  and  _395
REMARK  154  A    between atoms: _400  and  _401
REMARK  155  A    between atoms: _403  and  _405
REMARK  156  A    between atoms: _405  and  _406
REMARK  157  A    between atoms: _405  and  _408
REMARK  158  A    between atoms: _408  and  _409
REMARK  159  A    between atoms: _409  and  _410
REMARK  160  A    between atoms: _412  and  _414
REMARK  161  A    between atoms: _414  and  _415
REMARK  162  A    between atoms: _414  and  _417
REMARK  163  A    between atoms: _417  and  _418
REMARK  164  A    between atoms: _423  and  _424
REMARK  165  A    between atoms: _426  and  _428
REMARK  166  A    between atoms: _428  and  _429
REMARK  167  A    between atoms: _428  and  _431
REMARK  168  A    between atoms: _431  and  _432
REMARK  169  A    between atoms: _435  and  _437
REMARK  170  A    between atoms: _437  and  _438
REMARK  171  A    between atoms: _441  and  _443
REMARK  172  A    between atoms: _443  and  _444
REMARK  173  A    between atoms: _446  and  _448
REMARK  174  A    between atoms: _448  and  _449
REMARK  175  A    between atoms: _448  and  _451
REMARK  176  A    between atoms: _451  and  _452
REMARK  177  A    between atoms: _457  and  _458
REMARK  178  A    between atoms: _460  and  _462
REMARK  179  A    between atoms: _462  and  _463
REMARK  180  A    between atoms: _462  and  _465
REMARK  181  A    between atoms: _465  and  _466
REMARK  182  A    between atoms: _471  and  _473
REMARK  183  A    between atoms: _473  and  _474
REMARK  184  A    between atoms: _473  and  _476
REMARK  185  A    between atoms: _478  and  _480
REMARK  186  A    between atoms: _480  and  _481
REMARK  187  A    between atoms: _480  and  _483
REMARK  188  A    between atoms: _483  and  _484
REMARK  189  A    between atoms: _484  and  _485
REMARK  190  A    between atoms: _485  and  _486
REMARK  191  A    between atoms: _495  and  _497
REMARK  192  A    between atoms: _497  and  _498
REMARK  193  A    between atoms: _501  and  _503
REMARK  194  A    between atoms: _503  and  _504
REMARK  195  A    between atoms: _507  and  _509
REMARK  196  A    between atoms: _509  and  _510
REMARK  197  A    between atoms: _509  and  _512
REMARK  198  A    between atoms: _512  and  _513
REMARK  199  A    between atoms: _523  and  _525
REMARK  200  A    between atoms: _525  and  _526
REMARK  201  A    between atoms: _525  and  _528
REMARK  202  A    between atoms: _528  and  _529
REMARK  203  A    between atoms: _532  and  _534
REMARK  204  A    between atoms: _534  and  _535
REMARK  205  A    between atoms: _534  and  _537
REMARK  206  A    between atoms: _537  and  _538
REMARK  207  A    between atoms: _538  and  _539
REMARK  208  A    between atoms: _542  and  _544
REMARK  209  A    between atoms: _544  and  _545
REMARK  210  A    between atoms: _544  and  _547
REMARK  211  A    between atoms: _547  and  _548
REMARK  212  A    between atoms: _551  and  _553
REMARK  213  A    between atoms: _553  and  _554
REMARK  214  A    between atoms: _553  and  _556
REMARK  215  A    between atoms: _556  and  _557
REMARK  216  A    between atoms: _557  and  _558
REMARK  217  A    between atoms: _561  and  _563
REMARK  218  A    between atoms: _563  and  _564
REMARK  219  A    between atoms: _563  and  _566
REMARK  220  A    between atoms: _566  and  _567
REMARK  221  A    between atoms: _573  and  _575
REMARK  222  A    between atoms: _575  and  _576
REMARK  223  A    between atoms: _575  and  _578
REMARK  224  A    between atoms: _578  and  _579
REMARK  225  A    between atoms: _579  and  _580
REMARK  226  A    between atoms: _583  and  _585
REMARK  227  A    between atoms: _585  and  _586
REMARK  228  A    between atoms: _585  and  _588
REMARK  229  A    between atoms: _591  and  _593
REMARK  230  A    between atoms: _593  and  _594
REMARK  231  A    between atoms: _593  and  _596
REMARK                            x       y       z     vdW  Elec       q    Type
REMARK                         _______ _______ _______ _____ _____    ______ ____
ROOT
ATOM      1  O   HOH     1       7.209  24.323  11.449  0.00  0.00    +0.000 OA
ENDROOT
TORSDOF 0
REMARK  Name = ../refined-set-2016/4x5z/4x5z_pocket.pdb
REMARK  231 active torsions:
REMARK  status: ('A' for Active; 'I' for Inactive)
REMARK    1  A    between atoms: _1  and  _3
REMARK    2  A    between atoms: _3  and  _4
REMARK    3  A    between atoms: _3  and  _6
REMARK    4  A    between atoms: _6  and  _7
REMARK    5  A    between atoms: _10  and  _12
REMARK    6  A    between atoms: _12  and  _13
REMARK    7  A    between atoms: _12  and  _15
REMARK    8  A    between atoms: _15  and  _16
REMARK    9  A    between atoms: _18  and  _20
REMARK   10  A    between atoms: _20  and  _21
REMARK   11  A    between atoms: _20  and  _23
REMARK   12  A    between atoms: _23  and  _24
REMARK   13  A    between atoms: _26  and  _28
REMARK   14  A    between atoms: _28  and  _29
REMARK   15  A    between atoms: _31  and  _33
REMARK   16  A    between atoms: _33  and  _34
REMARK   17  A    between atoms: _37  and  _39
REMARK   18  A    between atoms: _39  and  _40
REMARK   19  A    between atoms: _39  and  _42
REMARK   20  A    between atoms: _42  and  _43
REMARK   21  A    between atoms: _49  and  _51
REMARK   22  A    between atoms: _51  and  _52
REMARK   23  A    between atoms: _51  and  _54
REMARK   24  A    between atoms: _54  and  _55
REMARK   25  A    between atoms: _58  and  _60
REMARK   26  A    between atoms: _60  and  _61
REMARK   27  A    between atoms: _64  and  _66
REMARK   28  A    between atoms: _66  and  _67
REMARK   29  A    between atoms: _66  and  _69
REMARK   30  A    between atoms: _69  and  _70
REMARK   31  A    between atoms: _73  and  _75
REMARK   32  A    between atoms: _75  and  _76
REMARK   33  A    between atoms: _75  and  _78
REMARK   34  A    between atoms: _78  and  _79
REMARK   35  A    between atoms: _81  and  _83
REMARK   36  A    between atoms: _83  and  _84
REMARK   37  A    between atoms: _83  and  _86
REMARK   38  A    between atoms: _86  and  _87
REMARK   39  A    between atoms: _87  and  _88
REMARK   40  A    between atoms: _91  and  _93
REMARK   41  A    between atoms: _93  and  _94
REMARK   42  A    between atoms: _93  and  _96
REMARK   43  A    between atoms: _96  and  _97
REMARK   44  A    between atoms: _100  and  _102
REMARK   45  A    between atoms: _102  and  _103
REMARK   46  A    between atoms: _102  and  _105
REMARK   47  A    between atoms: _105  and  _106
REMARK   48  A    between atoms: _111  and  _113
REMARK   49  A    between atoms: _113  and  _114
REMARK   50  A    between atoms: _117  and  _119
REMARK   51  A    between atoms: _119  and  _120
REMARK   52  A    between atoms: _119  and  _122
REMARK   53  A    between atoms: _122  and  _123
REMARK   54  A    between atoms: _133  and  _135
REMARK   55  A    between atoms: _135  and  _136
REMARK   56  A    between atoms: _135  and  _138
REMARK   57  A    between atoms: _138  and  _139
REMARK   58  A    between atoms: _142  and  _144
REMARK   59  A    between atoms: _144  and  _145
REMARK   60  A    between atoms: _144  and  _147
REMARK   61  A    between atoms: _147  and  _148
REMARK   62  A    between atoms: _158  and  _160
REMARK   63  A    between atoms: _160  and  _161
REMARK   64  A    between atoms: _160  and  _163
REMARK   65  A    between atoms: _163  and  _164
REMARK   66  A    between atoms: _169  and  _171
REMARK   67  A    between atoms: _171  and  _172
REMARK   68  A    between atoms: _174  and  _176
REMARK   69  A    between atoms: _176  and  _177
REMARK   70  A    between atoms: _176  and  _179
REMARK   71  A    between atoms: _179  and  _180
REMARK   72  A    between atoms: _190  and  _192
REMARK   73  A    between atoms: _192  and  _193
REMARK   74  A    between atoms: _192  and  _195
REMARK   75  A    between atoms: _195  and  _196
REMARK   76  A    between atoms: _199  and  _201
REMARK   77  A    between atoms: _201  and  _202
REMARK   78  A    between atoms: _201  and  _204
REMARK   79  A    between atoms: _204  and  _205
REMARK   80  A    between atoms: _205  and  _206
REMARK   81  A    between atoms: _208  and  _210
REMARK   82  A    between atoms: _210  and  _211
REMARK   83  A    between atoms: _210  and  _213
REMARK   84  A    between atoms: _215  and  _217
REMARK   85  A    between atoms: _217  and  _218
REMARK   86  A    between atoms: _221  and  _223
REMARK   87  A    between atoms: _223  and  _224
REMARK   88  A    between atoms: _223  and  _226
REMARK   89  A    between atoms: _226  and  _227
REMARK   90  A    between atoms: _233  and  _235
REMARK   91  A    between atoms: _235  and  _236
REMARK   92  A    between atoms: _235  and  _238
REMARK   93  A    between atoms: _238  and  _239
REMARK   94  A    between atoms: _239  and  _240
REMARK   95  A    between atoms: _242  and  _244
REMARK   96  A    between atoms: _244  and  _245
REMARK   97  A    between atoms: _244  and  _247
REMARK   98  A    between atoms: _250  and  _252
REMARK   99  A    between atoms: _252  and  _253
REMARK  100  A    between atoms: _252  and  _255
REMARK  101  A    between atoms: _257  and  _259
REMARK  102  A    between atoms: _259  and  _260
REMARK  103  A    between atoms: _263  and  _265
REMARK  104  A    between atoms: _265  and  _266
REMARK  105  A    between atoms: _265  and  _268
REMARK  106  A    between atoms: _268  and  _269
REMARK  107  A    between atoms: _269  and  _270
REMARK  108  A    between atoms: _275  and  _277
REMARK  109  A    between atoms: _277  and  _278
REMARK  110  A    between atoms: _277  and  _280
REMARK  111  A    between atoms: _280  and  _281
REMARK  112  A    between atoms: _286  and  _287
REMARK  113  A    between atoms: _290  and  _291
REMARK  114  A    between atoms: _296  and  _298
REMARK  115  A    between atoms: _298  and  _299
REMARK  116  A    between atoms: _298  and  _301
REMARK  117  A    between atoms: _301  and  _302
REMARK  118  A    between atoms: _302  and  _303
REMARK  119  A    between atoms: _305  and  _307
REMARK  120  A    between atoms: _307  and  _308
REMARK  121  A    between atoms: _311  and  _313
REMARK  122  A    between atoms: _313  and  _314
REMARK  123  A    between atoms: _313  and  _316
REMARK  124  A    between atoms: _316  and  _317
REMARK  125  A    between atoms: _320  and  _322
REMARK  126  A    between atoms: _322  and  _323
REMARK  127  A    between atoms: _325  and  _327
REMARK  128  A    between atoms: _327  and  _328
REMARK  129  A    between atoms: _327  and  _330
REMARK  130  A    between atoms: _330  and  _331
REMARK  131  A    between atoms: _336  and  _338
REMARK  132  A    between atoms: _338  and  _339
REMARK  133  A    between atoms: _338  and  _341
REMARK  134  A    between atoms: _341  and  _342
REMARK  135  A    between atoms: _345  and  _347
REMARK  136  A    between atoms: _347  and  _348
REMARK  137  A    between atoms: _347  and  _350
REMARK  138  A    between atoms: _350  and  _351
REMARK  139  A    between atoms: _356  and  _357
REMARK  140  A    between atoms: _359  and  _361
REMARK  141  A    between atoms: _361  and  _362
REMARK  142  A    between atoms: _361  and  _364
REMARK  143  A    between atoms: _364  and  _365
REMARK  144  A    between atoms: _368  and  _370
REMARK  145  A    between atoms: _370  and  _371
REMARK  146  A    between atoms: _370  and  _373
REMARK  147  A    between atoms: _373  and  _374
REMARK  148  A    between atoms: _379  and  _380
REMARK  149  A    between atoms: _383  and  _384
REMARK  150  A    between atoms: _389  and  _391
REMARK  151  A    between atoms: _391  and  _392
REMARK  152  A    between atoms: _391  and  _394
REMARK  153  A    between atoms: _394  and  _395
REMARK  154  A    between atoms: _400  and  _401
REMARK  155  A    between atoms: _403  and  _405
REMARK  156  A    between atoms: _405  and  _406
REMARK  157  A    between atoms: _405  and  _408
REMARK  158  A    between atoms: _408  and  _409
REMARK  159  A    between atoms: _409  and  _410
REMARK  160  A    between atoms: _412  and  _414
REMARK  161  A    between atoms: _414  and  _415
REMARK  162  A    between atoms: _414  and  _417
REMARK  163  A    between atoms: _417  and  _418
REMARK  164  A    between atoms: _423  and  _424
REMARK  165  A    between atoms: _426  and  _428
REMARK  166  A    between atoms: _428  and  _429
REMARK  167  A    between atoms: _428  and  _431
REMARK  168  A    between atoms: _431  and  _432
REMARK  169  A    between atoms: _435  and  _437
REMARK  170  A    between atoms: _437  and  _438
REMARK  171  A    between atoms: _441  and  _443
REMARK  172  A    between atoms: _443  and  _444
REMARK  173  A    between atoms: _446  and  _448
REMARK  174  A    between atoms: _448  and  _449
REMARK  175  A    between atoms: _448  and  _451
REMARK  176  A    between atoms: _451  and  _452
REMARK  177  A    between atoms: _457  and  _458
REMARK  178  A    between atoms: _460  and  _462
REMARK  179  A    between atoms: _462  and  _463
REMARK  180  A    between atoms: _462  and  _465
REMARK  181  A    between atoms: _465  and  _466
REMARK  182  A    between atoms: _471  and  _473
REMARK  183  A    between atoms: _473  and  _474
REMARK  184  A    between atoms: _473  and  _476
REMARK  185  A    between atoms: _478  and  _480
REMARK  186  A    between atoms: _480  and  _481
REMARK  187  A    between atoms: _480  and  _483
REMARK  188  A    between atoms: _483  and  _484
REMARK  189  A    between atoms: _484  and  _485
REMARK  190  A    between atoms: _485  and  _486
REMARK  191  A    between atoms: _495  and  _497
REMARK  192  A    between atoms: _497  and  _498
REMARK  193  A    between atoms: _501  and  _503
REMARK  194  A    between atoms: _503  and  _504
REMARK  195  A    between atoms: _507  and  _509
REMARK  196  A    between atoms: _509  and  _510
REMARK  197  A    between atoms: _509  and  _512
REMARK  198  A    between atoms: _512  and  _513
REMARK  199  A    between atoms: _523  and  _525
REMARK  200  A    between atoms: _525  and  _526
REMARK  201  A    between atoms: _525  and  _528
REMARK  202  A    between atoms: _528  and  _529
REMARK  203  A    between atoms: _532  and  _534
REMARK  204  A    between atoms: _534  and  _535
REMARK  205  A    between atoms: _534  and  _537
REMARK  206  A    between atoms: _537  and  _538
REMARK  207  A    between atoms: _538  and  _539
REMARK  208  A    between atoms: _542  and  _544
REMARK  209  A    between atoms: _544  and  _545
REMARK  210  A    between atoms: _544  and  _547
REMARK  211  A    between atoms: _547  and  _548
REMARK  212  A    between atoms: _551  and  _553
REMARK  213  A    between atoms: _553  and  _554
REMARK  214  A    between atoms: _553  and  _556
REMARK  215  A    between atoms: _556  and  _557
REMARK  216  A    between atoms: _557  and  _558
REMARK  217  A    between atoms: _561  and  _563
REMARK  218  A    between atoms: _563  and  _564
REMARK  219  A    between atoms: _563  and  _566
REMARK  220  A    between atoms: _566  and  _567
REMARK  221  A    between atoms: _573  and  _575
REMARK  222  A    between atoms: _575  and  _576
REMARK  223  A    between atoms: _575  and  _578
REMARK  224  A    between atoms: _578  and  _579
REMARK  225  A    between atoms: _579  and  _580
REMARK  226  A    between atoms: _583  and  _585
REMARK  227  A    between atoms: _585  and  _586
REMARK  228  A    between atoms: _585  and  _588
REMARK  229  A    between atoms: _591  and  _593
REMARK  230  A    between atoms: _593  and  _594
REMARK  231  A    between atoms: _593  and  _596
REMARK                            x       y       z     vdW  Elec       q    Type
REMARK                         _______ _______ _______ _____ _____    ______ ____
ROOT
ATOM      1  O   HOH     1      12.254  10.376   7.322  0.00  0.00    +0.000 OA
ENDROOT
TORSDOF 0
