REMARK  Name = ../refined-set-2016/5er2/5er2_pocket.pdb
REMARK  283 active torsions:
REMARK  status: ('A' for Active; 'I' for Inactive)
REMARK    1  A    between atoms: _1  and  _3
REMARK    2  A    between atoms: _3  and  _4
REMARK    3  A    between atoms: _3  and  _6
REMARK    4  A    between atoms: _6  and  _7
REMARK    5  A    between atoms: _10  and  _12
REMARK    6  A    between atoms: _12  and  _13
REMARK    7  A    between atoms: _12  and  _15
REMARK    8  A    between atoms: _15  and  _16
REMARK    9  A    between atoms: _19  and  _21
REMARK   10  A    between atoms: _21  and  _22
REMARK   11  A    between atoms: _21  and  _24
REMARK   12  A    between atoms: _24  and  _25
REMARK   13  A    between atoms: _28  and  _30
REMARK   14  A    between atoms: _30  and  _31
REMARK   15  A    between atoms: _30  and  _33
REMARK   16  A    between atoms: _33  and  _34
REMARK   17  A    between atoms: _37  and  _39
REMARK   18  A    between atoms: _39  and  _40
REMARK   19  A    between atoms: _39  and  _42
REMARK   20  A    between atoms: _42  and  _43
REMARK   21  A    between atoms: _46  and  _48
REMARK   22  A    between atoms: _48  and  _49
REMARK   23  A    between atoms: _52  and  _54
REMARK   24  A    between atoms: _54  and  _55
REMARK   25  A    between atoms: _54  and  _57
REMARK   26  A    between atoms: _57  and  _58
REMARK   27  A    between atoms: _63  and  _64
REMARK   28  A    between atoms: _66  and  _68
REMARK   29  A    between atoms: _68  and  _69
REMARK   30  A    between atoms: _68  and  _71
REMARK   31  A    between atoms: _71  and  _72
REMARK   32  A    between atoms: _75  and  _77
REMARK   33  A    between atoms: _77  and  _78
REMARK   34  A    between atoms: _77  and  _80
REMARK   35  A    between atoms: _80  and  _81
REMARK   36  A    between atoms: _87  and  _89
REMARK   37  A    between atoms: _89  and  _90
REMARK   38  A    between atoms: _89  and  _92
REMARK   39  A    between atoms: _92  and  _93
REMARK   40  A    between atoms: _96  and  _98
REMARK   41  A    between atoms: _98  and  _99
REMARK   42  A    between atoms: _98  and  _101
REMARK   43  A    between atoms: _101  and  _102
REMARK   44  A    between atoms: _105  and  _107
REMARK   45  A    between atoms: _107  and  _108
REMARK   46  A    between atoms: _110  and  _112
REMARK   47  A    between atoms: _112  and  _113
REMARK   48  A    between atoms: _112  and  _115
REMARK   49  A    between atoms: _115  and  _116
REMARK   50  A    between atoms: _118  and  _120
REMARK   51  A    between atoms: _120  and  _121
REMARK   52  A    between atoms: _120  and  _123
REMARK   53  A    between atoms: _123  and  _124
REMARK   54  A    between atoms: _126  and  _128
REMARK   55  A    between atoms: _128  and  _129
REMARK   56  A    between atoms: _128  and  _131
REMARK   57  A    between atoms: _131  and  _132
REMARK   58  A    between atoms: _135  and  _137
REMARK   59  A    between atoms: _137  and  _138
REMARK   60  A    between atoms: _137  and  _140
REMARK   61  A    between atoms: _140  and  _141
REMARK   62  A    between atoms: _151  and  _153
REMARK   63  A    between atoms: _153  and  _154
REMARK   64  A    between atoms: _153  and  _156
REMARK   65  A    between atoms: _156  and  _157
REMARK   66  A    between atoms: _159  and  _161
REMARK   67  A    between atoms: _161  and  _162
REMARK   68  A    between atoms: _161  and  _164
REMARK   69  A    between atoms: _164  and  _165
REMARK   70  A    between atoms: _168  and  _170
REMARK   71  A    between atoms: _170  and  _171
REMARK   72  A    between atoms: _170  and  _173
REMARK   73  A    between atoms: _173  and  _174
REMARK   74  A    between atoms: _176  and  _178
REMARK   75  A    between atoms: _178  and  _179
REMARK   76  A    between atoms: _178  and  _181
REMARK   77  A    between atoms: _181  and  _182
REMARK   78  A    between atoms: _187  and  _188
REMARK   79  A    between atoms: _190  and  _192
REMARK   80  A    between atoms: _192  and  _193
REMARK   81  A    between atoms: _195  and  _197
REMARK   82  A    between atoms: _197  and  _198
REMARK   83  A    between atoms: _197  and  _200
REMARK   84  A    between atoms: _200  and  _201
REMARK   85  A    between atoms: _204  and  _206
REMARK   86  A    between atoms: _206  and  _207
REMARK   87  A    between atoms: _209  and  _211
REMARK   88  A    between atoms: _211  and  _212
REMARK   89  A    between atoms: _211  and  _214
REMARK   90  A    between atoms: _214  and  _215
REMARK   91  A    between atoms: _217  and  _219
REMARK   92  A    between atoms: _219  and  _220
REMARK   93  A    between atoms: _219  and  _222
REMARK   94  A    between atoms: _222  and  _223
REMARK   95  A    between atoms: _225  and  _227
REMARK   96  A    between atoms: _227  and  _228
REMARK   97  A    between atoms: _227  and  _230
REMARK   98  A    between atoms: _230  and  _231
REMARK   99  A    between atoms: _233  and  _235
REMARK  100  A    between atoms: _235  and  _236
REMARK  101  A    between atoms: _235  and  _238
REMARK  102  A    between atoms: _238  and  _239
REMARK  103  A    between atoms: _241  and  _243
REMARK  104  A    between atoms: _243  and  _244
REMARK  105  A    between atoms: _243  and  _246
REMARK  106  A    between atoms: _246  and  _247
REMARK  107  A    between atoms: _253  and  _255
REMARK  108  A    between atoms: _255  and  _256
REMARK  109  A    between atoms: _255  and  _258
REMARK  110  A    between atoms: _258  and  _259
REMARK  111  A    between atoms: _259  and  _260
REMARK  112  A    between atoms: _263  and  _265
REMARK  113  A    between atoms: _265  and  _266
REMARK  114  A    between atoms: _265  and  _268
REMARK  115  A    between atoms: _268  and  _269
REMARK  116  A    between atoms: _272  and  _274
REMARK  117  A    between atoms: _274  and  _275
REMARK  118  A    between atoms: _274  and  _277
REMARK  119  A    between atoms: _277  and  _278
REMARK  120  A    between atoms: _280  and  _282
REMARK  121  A    between atoms: _282  and  _283
REMARK  122  A    between atoms: _282  and  _285
REMARK  123  A    between atoms: _285  and  _286
REMARK  124  A    between atoms: _289  and  _291
REMARK  125  A    between atoms: _291  and  _292
REMARK  126  A    between atoms: _291  and  _294
REMARK  127  A    between atoms: _294  and  _295
REMARK  128  A    between atoms: _298  and  _300
REMARK  129  A    between atoms: _300  and  _301
REMARK  130  A    between atoms: _303  and  _305
REMARK  131  A    between atoms: _305  and  _306
REMARK  132  A    between atoms: _305  and  _308
REMARK  133  A    between atoms: _308  and  _309
REMARK  134  A    between atoms: _312  and  _314
REMARK  135  A    between atoms: _314  and  _315
REMARK  136  A    between atoms: _314  and  _317
REMARK  137  A    between atoms: _317  and  _318
REMARK  138  A    between atoms: _321  and  _323
REMARK  139  A    between atoms: _323  and  _324
REMARK  140  A    between atoms: _323  and  _326
REMARK  141  A    between atoms: _326  and  _327
REMARK  142  A    between atoms: _330  and  _332
REMARK  143  A    between atoms: _332  and  _333
REMARK  144  A    between atoms: _336  and  _338
REMARK  145  A    between atoms: _338  and  _339
REMARK  146  A    between atoms: _338  and  _341
REMARK  147  A    between atoms: _341  and  _342
REMARK  148  A    between atoms: _348  and  _350
REMARK  149  A    between atoms: _350  and  _351
REMARK  150  A    between atoms: _350  and  _353
REMARK  151  A    between atoms: _353  and  _354
REMARK  152  A    between atoms: _356  and  _358
REMARK  153  A    between atoms: _358  and  _359
REMARK  154  A    between atoms: _358  and  _361
REMARK  155  A    between atoms: _361  and  _362
REMARK  156  A    between atoms: _365  and  _367
REMARK  157  A    between atoms: _367  and  _368
REMARK  158  A    between atoms: _367  and  _370
REMARK  159  A    between atoms: _370  and  _371
REMARK  160  A    between atoms: _374  and  _376
REMARK  161  A    between atoms: _376  and  _377
REMARK  162  A    between atoms: _376  and  _379
REMARK  163  A    between atoms: _379  and  _380
REMARK  164  A    between atoms: _385  and  _387
REMARK  165  A    between atoms: _387  and  _388
REMARK  166  A    between atoms: _387  and  _390
REMARK  167  A    between atoms: _390  and  _391
REMARK  168  A    between atoms: _394  and  _396
REMARK  169  A    between atoms: _396  and  _397
REMARK  170  A    between atoms: _396  and  _399
REMARK  171  A    between atoms: _402  and  _404
REMARK  172  A    between atoms: _404  and  _405
REMARK  173  A    between atoms: _404  and  _407
REMARK  174  A    between atoms: _407  and  _408
REMARK  175  A    between atoms: _408  and  _409
REMARK  176  A    between atoms: _414  and  _416
REMARK  177  A    between atoms: _416  and  _417
REMARK  178  A    between atoms: _416  and  _419
REMARK  179  A    between atoms: _419  and  _420
REMARK  180  A    between atoms: _420  and  _421
REMARK  181  A    between atoms: _426  and  _428
REMARK  182  A    between atoms: _428  and  _429
REMARK  183  A    between atoms: _428  and  _431
REMARK  184  A    between atoms: _431  and  _432
REMARK  185  A    between atoms: _438  and  _440
REMARK  186  A    between atoms: _440  and  _441
REMARK  187  A    between atoms: _440  and  _443
REMARK  188  A    between atoms: _443  and  _444
REMARK  189  A    between atoms: _454  and  _456
REMARK  190  A    between atoms: _456  and  _457
REMARK  191  A    between atoms: _459  and  _461
REMARK  192  A    between atoms: _461  and  _462
REMARK  193  A    between atoms: _461  and  _464
REMARK  194  A    between atoms: _464  and  _465
REMARK  195  A    between atoms: _468  and  _470
REMARK  196  A    between atoms: _470  and  _471
REMARK  197  A    between atoms: _474  and  _476
REMARK  198  A    between atoms: _476  and  _477
REMARK  199  A    between atoms: _476  and  _479
REMARK  200  A    between atoms: _479  and  _480
REMARK  201  A    between atoms: _483  and  _485
REMARK  202  A    between atoms: _485  and  _486
REMARK  203  A    between atoms: _485  and  _488
REMARK  204  A    between atoms: _488  and  _489
REMARK  205  A    between atoms: _492  and  _494
REMARK  206  A    between atoms: _494  and  _495
REMARK  207  A    between atoms: _497  and  _499
REMARK  208  A    between atoms: _499  and  _500
REMARK  209  A    between atoms: _499  and  _502
REMARK  210  A    between atoms: _502  and  _503
REMARK  211  A    between atoms: _506  and  _508
REMARK  212  A    between atoms: _508  and  _509
REMARK  213  A    between atoms: _508  and  _511
REMARK  214  A    between atoms: _511  and  _512
REMARK  215  A    between atoms: _515  and  _517
REMARK  216  A    between atoms: _517  and  _518
REMARK  217  A    between atoms: _517  and  _520
REMARK  218  A    between atoms: _520  and  _521
REMARK  219  A    between atoms: _524  and  _526
REMARK  220  A    between atoms: _526  and  _527
REMARK  221  A    between atoms: _526  and  _529
REMARK  222  A    between atoms: _529  and  _530
REMARK  223  A    between atoms: _533  and  _535
REMARK  224  A    between atoms: _535  and  _536
REMARK  225  A    between atoms: _535  and  _538
REMARK  226  A    between atoms: _538  and  _539
REMARK  227  A    between atoms: _544  and  _545
REMARK  228  A    between atoms: _547  and  _549
REMARK  229  A    between atoms: _549  and  _550
REMARK  230  A    between atoms: _549  and  _552
REMARK  231  A    between atoms: _555  and  _557
REMARK  232  A    between atoms: _557  and  _558
REMARK  233  A    between atoms: _560  and  _562
REMARK  234  A    between atoms: _562  and  _563
REMARK  235  A    between atoms: _562  and  _565
REMARK  236  A    between atoms: _565  and  _566
REMARK  237  A    between atoms: _572  and  _574
REMARK  238  A    between atoms: _574  and  _575
REMARK  239  A    between atoms: _574  and  _577
REMARK  240  A    between atoms: _577  and  _578
REMARK  241  A    between atoms: _584  and  _586
REMARK  242  A    between atoms: _586  and  _587
REMARK  243  A    between atoms: _589  and  _591
REMARK  244  A    between atoms: _591  and  _592
REMARK  245  A    between atoms: _594  and  _596
REMARK  246  A    between atoms: _596  and  _597
REMARK  247  A    between atoms: _596  and  _599
REMARK  248  A    between atoms: _599  and  _600
REMARK  249  A    between atoms: _600  and  _601
REMARK  250  A    between atoms: _606  and  _608
REMARK  251  A    between atoms: _608  and  _609
REMARK  252  A    between atoms: _608  and  _611
REMARK  253  A    between atoms: _611  and  _612
REMARK  254  A    between atoms: _614  and  _616
REMARK  255  A    between atoms: _616  and  _617
REMARK  256  A    between atoms: _619  and  _621
REMARK  257  A    between atoms: _621  and  _622
REMARK  258  A    between atoms: _621  and  _624
REMARK  259  A    between atoms: _624  and  _625
REMARK  260  A    between atoms: _628  and  _630
REMARK  261  A    between atoms: _630  and  _631
REMARK  262  A    between atoms: _633  and  _635
REMARK  263  A    between atoms: _635  and  _636
REMARK  264  A    between atoms: _635  and  _638
REMARK  265  A    between atoms: _638  and  _639
REMARK  266  A    between atoms: _642  and  _644
REMARK  267  A    between atoms: _644  and  _645
REMARK  268  A    between atoms: _644  and  _647
REMARK  269  A    between atoms: _647  and  _648
REMARK  270  A    between atoms: _653  and  _655
REMARK  271  A    between atoms: _655  and  _656
REMARK  272  A    between atoms: _655  and  _658
REMARK  273  A    between atoms: _658  and  _659
REMARK  274  A    between atoms: _662  and  _664
REMARK  275  A    between atoms: _664  and  _665
REMARK  276  A    between atoms: _664  and  _667
REMARK  277  A    between atoms: _667  and  _668
REMARK  278  A    between atoms: _674  and  _676
REMARK  279  A    between atoms: _676  and  _677
REMARK  280  A    between atoms: _679  and  _681
REMARK  281  A    between atoms: _681  and  _682
REMARK  282  A    between atoms: _681  and  _684
REMARK  283  A    between atoms: _684  and  _685
REMARK                            x       y       z     vdW  Elec       q    Type
REMARK                         _______ _______ _______ _____ _____    ______ ____
ROOT
ATOM      1  C   ILE A   1      13.919  21.686  21.357  0.00  0.00    +0.238 C 
ATOM      2  O   ILE A   1      14.322  21.759  22.524  0.00  0.00    -0.274 OA
ATOM      3  N   ASP A   2      13.123  20.712  20.962  0.00  0.00    -0.298 N 
ATOM      4  H   ASP A   2      12.813  20.670  19.970  0.00  0.00    +0.150 HD
ENDROOT
BRANCH   1   5
ATOM      5  CA  ILE A   1      14.329  22.731  20.306  0.00  0.00    +0.145 C 
BRANCH   5   6
ATOM      6  N   ILE A   1      13.978  22.330  18.938  0.00  0.00    -0.238 NA
ATOM      7  H   ILE A   1      13.149  22.760  18.480  0.00  0.00    +0.142 HD
ENDBRANCH   5   6
BRANCH   5   8
ATOM      8  CB  ILE A   1      13.643  24.042  20.654  0.00  0.00    +0.025 C 
ATOM      9  CG2 ILE A   1      13.937  25.146  19.637  0.00  0.00    +0.002 C 
BRANCH   8  10
ATOM     10  CG1 ILE A   1      12.123  23.912  20.723  0.00  0.00    +0.002 C 
ATOM     11  CD1 ILE A   1      11.448  25.128  21.354  0.00  0.00    +0.000 C 
ENDBRANCH   8  10
ENDBRANCH   5   8
ENDBRANCH   1   5
BRANCH   3  12
ATOM     12  CA  ASP A   2      12.668  19.681  21.915  0.00  0.00    +0.148 C 
BRANCH  12  13
ATOM     13  C   ASP A   2      12.101  18.469  21.185  0.00  0.00    +0.227 C 
ATOM     14  O   ASP A   2      12.183  18.367  19.958  0.00  0.00    -0.286 OA
ENDBRANCH  12  13
BRANCH  12  15
ATOM     15  CB  ASP A   2      11.582  20.259  22.828  0.00  0.00    +0.142 C 
BRANCH  15  16
ATOM     16  CG  ASP A   2      10.326  20.699  22.070  0.00  0.00    +0.367 C 
ATOM     17  OD2 ASP A   2       9.471  21.477  22.642  0.00  0.00    -0.246 OA
ATOM     18  OD1 ASP A   2      10.121  20.295  20.864  0.00  0.00    -0.246 OA
ENDBRANCH  15  16
ENDBRANCH  12  15
ENDBRANCH   3  12
TORSDOF 8
REMARK  Name = ../refined-set-2016/5er2/5er2_pocket.pdb
REMARK  283 active torsions:
REMARK  status: ('A' for Active; 'I' for Inactive)
REMARK    1  A    between atoms: _1  and  _3
REMARK    2  A    between atoms: _3  and  _4
REMARK    3  A    between atoms: _3  and  _6
REMARK    4  A    between atoms: _6  and  _7
REMARK    5  A    between atoms: _10  and  _12
REMARK    6  A    between atoms: _12  and  _13
REMARK    7  A    between atoms: _12  and  _15
REMARK    8  A    between atoms: _15  and  _16
REMARK    9  A    between atoms: _19  and  _21
REMARK   10  A    between atoms: _21  and  _22
REMARK   11  A    between atoms: _21  and  _24
REMARK   12  A    between atoms: _24  and  _25
REMARK   13  A    between atoms: _28  and  _30
REMARK   14  A    between atoms: _30  and  _31
REMARK   15  A    between atoms: _30  and  _33
REMARK   16  A    between atoms: _33  and  _34
REMARK   17  A    between atoms: _37  and  _39
REMARK   18  A    between atoms: _39  and  _40
REMARK   19  A    between atoms: _39  and  _42
REMARK   20  A    between atoms: _42  and  _43
REMARK   21  A    between atoms: _46  and  _48
REMARK   22  A    between atoms: _48  and  _49
REMARK   23  A    between atoms: _52  and  _54
REMARK   24  A    between atoms: _54  and  _55
REMARK   25  A    between atoms: _54  and  _57
REMARK   26  A    between atoms: _57  and  _58
REMARK   27  A    between atoms: _63  and  _64
REMARK   28  A    between atoms: _66  and  _68
REMARK   29  A    between atoms: _68  and  _69
REMARK   30  A    between atoms: _68  and  _71
REMARK   31  A    between atoms: _71  and  _72
REMARK   32  A    between atoms: _75  and  _77
REMARK   33  A    between atoms: _77  and  _78
REMARK   34  A    between atoms: _77  and  _80
REMARK   35  A    between atoms: _80  and  _81
REMARK   36  A    between atoms: _87  and  _89
REMARK   37  A    between atoms: _89  and  _90
REMARK   38  A    between atoms: _89  and  _92
REMARK   39  A    between atoms: _92  and  _93
REMARK   40  A    between atoms: _96  and  _98
REMARK   41  A    between atoms: _98  and  _99
REMARK   42  A    between atoms: _98  and  _101
REMARK   43  A    between atoms: _101  and  _102
REMARK   44  A    between atoms: _105  and  _107
REMARK   45  A    between atoms: _107  and  _108
REMARK   46  A    between atoms: _110  and  _112
REMARK   47  A    between atoms: _112  and  _113
REMARK   48  A    between atoms: _112  and  _115
REMARK   49  A    between atoms: _115  and  _116
REMARK   50  A    between atoms: _118  and  _120
REMARK   51  A    between atoms: _120  and  _121
REMARK   52  A    between atoms: _120  and  _123
REMARK   53  A    between atoms: _123  and  _124
REMARK   54  A    between atoms: _126  and  _128
REMARK   55  A    between atoms: _128  and  _129
REMARK   56  A    between atoms: _128  and  _131
REMARK   57  A    between atoms: _131  and  _132
REMARK   58  A    between atoms: _135  and  _137
REMARK   59  A    between atoms: _137  and  _138
REMARK   60  A    between atoms: _137  and  _140
REMARK   61  A    between atoms: _140  and  _141
REMARK   62  A    between atoms: _151  and  _153
REMARK   63  A    between atoms: _153  and  _154
REMARK   64  A    between atoms: _153  and  _156
REMARK   65  A    between atoms: _156  and  _157
REMARK   66  A    between atoms: _159  and  _161
REMARK   67  A    between atoms: _161  and  _162
REMARK   68  A    between atoms: _161  and  _164
REMARK   69  A    between atoms: _164  and  _165
REMARK   70  A    between atoms: _168  and  _170
REMARK   71  A    between atoms: _170  and  _171
REMARK   72  A    between atoms: _170  and  _173
REMARK   73  A    between atoms: _173  and  _174
REMARK   74  A    between atoms: _176  and  _178
REMARK   75  A    between atoms: _178  and  _179
REMARK   76  A    between atoms: _178  and  _181
REMARK   77  A    between atoms: _181  and  _182
REMARK   78  A    between atoms: _187  and  _188
REMARK   79  A    between atoms: _190  and  _192
REMARK   80  A    between atoms: _192  and  _193
REMARK   81  A    between atoms: _195  and  _197
REMARK   82  A    between atoms: _197  and  _198
REMARK   83  A    between atoms: _197  and  _200
REMARK   84  A    between atoms: _200  and  _201
REMARK   85  A    between atoms: _204  and  _206
REMARK   86  A    between atoms: _206  and  _207
REMARK   87  A    between atoms: _209  and  _211
REMARK   88  A    between atoms: _211  and  _212
REMARK   89  A    between atoms: _211  and  _214
REMARK   90  A    between atoms: _214  and  _215
REMARK   91  A    between atoms: _217  and  _219
REMARK   92  A    between atoms: _219  and  _220
REMARK   93  A    between atoms: _219  and  _222
REMARK   94  A    between atoms: _222  and  _223
REMARK   95  A    between atoms: _225  and  _227
REMARK   96  A    between atoms: _227  and  _228
REMARK   97  A    between atoms: _227  and  _230
REMARK   98  A    between atoms: _230  and  _231
REMARK   99  A    between atoms: _233  and  _235
REMARK  100  A    between atoms: _235  and  _236
REMARK  101  A    between atoms: _235  and  _238
REMARK  102  A    between atoms: _238  and  _239
REMARK  103  A    between atoms: _241  and  _243
REMARK  104  A    between atoms: _243  and  _244
REMARK  105  A    between atoms: _243  and  _246
REMARK  106  A    between atoms: _246  and  _247
REMARK  107  A    between atoms: _253  and  _255
REMARK  108  A    between atoms: _255  and  _256
REMARK  109  A    between atoms: _255  and  _258
REMARK  110  A    between atoms: _258  and  _259
REMARK  111  A    between atoms: _259  and  _260
REMARK  112  A    between atoms: _263  and  _265
REMARK  113  A    between atoms: _265  and  _266
REMARK  114  A    between atoms: _265  and  _268
REMARK  115  A    between atoms: _268  and  _269
REMARK  116  A    between atoms: _272  and  _274
REMARK  117  A    between atoms: _274  and  _275
REMARK  118  A    between atoms: _274  and  _277
REMARK  119  A    between atoms: _277  and  _278
REMARK  120  A    between atoms: _280  and  _282
REMARK  121  A    between atoms: _282  and  _283
REMARK  122  A    between atoms: _282  and  _285
REMARK  123  A    between atoms: _285  and  _286
REMARK  124  A    between atoms: _289  and  _291
REMARK  125  A    between atoms: _291  and  _292
REMARK  126  A    between atoms: _291  and  _294
REMARK  127  A    between atoms: _294  and  _295
REMARK  128  A    between atoms: _298  and  _300
REMARK  129  A    between atoms: _300  and  _301
REMARK  130  A    between atoms: _303  and  _305
REMARK  131  A    between atoms: _305  and  _306
REMARK  132  A    between atoms: _305  and  _308
REMARK  133  A    between atoms: _308  and  _309
REMARK  134  A    between atoms: _312  and  _314
REMARK  135  A    between atoms: _314  and  _315
REMARK  136  A    between atoms: _314  and  _317
REMARK  137  A    between atoms: _317  and  _318
REMARK  138  A    between atoms: _321  and  _323
REMARK  139  A    between atoms: _323  and  _324
REMARK  140  A    between atoms: _323  and  _326
REMARK  141  A    between atoms: _326  and  _327
REMARK  142  A    between atoms: _330  and  _332
REMARK  143  A    between atoms: _332  and  _333
REMARK  144  A    between atoms: _336  and  _338
REMARK  145  A    between atoms: _338  and  _339
REMARK  146  A    between atoms: _338  and  _341
REMARK  147  A    between atoms: _341  and  _342
REMARK  148  A    between atoms: _348  and  _350
REMARK  149  A    between atoms: _350  and  _351
REMARK  150  A    between atoms: _350  and  _353
REMARK  151  A    between atoms: _353  and  _354
REMARK  152  A    between atoms: _356  and  _358
REMARK  153  A    between atoms: _358  and  _359
REMARK  154  A    between atoms: _358  and  _361
REMARK  155  A    between atoms: _361  and  _362
REMARK  156  A    between atoms: _365  and  _367
REMARK  157  A    between atoms: _367  and  _368
REMARK  158  A    between atoms: _367  and  _370
REMARK  159  A    between atoms: _370  and  _371
REMARK  160  A    between atoms: _374  and  _376
REMARK  161  A    between atoms: _376  and  _377
REMARK  162  A    between atoms: _376  and  _379
REMARK  163  A    between atoms: _379  and  _380
REMARK  164  A    between atoms: _385  and  _387
REMARK  165  A    between atoms: _387  and  _388
REMARK  166  A    between atoms: _387  and  _390
REMARK  167  A    between atoms: _390  and  _391
REMARK  168  A    between atoms: _394  and  _396
REMARK  169  A    between atoms: _396  and  _397
REMARK  170  A    between atoms: _396  and  _399
REMARK  171  A    between atoms: _402  and  _404
REMARK  172  A    between atoms: _404  and  _405
REMARK  173  A    between atoms: _404  and  _407
REMARK  174  A    between atoms: _407  and  _408
REMARK  175  A    between atoms: _408  and  _409
REMARK  176  A    between atoms: _414  and  _416
REMARK  177  A    between atoms: _416  and  _417
REMARK  178  A    between atoms: _416  and  _419
REMARK  179  A    between atoms: _419  and  _420
REMARK  180  A    between atoms: _420  and  _421
REMARK  181  A    between atoms: _426  and  _428
REMARK  182  A    between atoms: _428  and  _429
REMARK  183  A    between atoms: _428  and  _431
REMARK  184  A    between atoms: _431  and  _432
REMARK  185  A    between atoms: _438  and  _440
REMARK  186  A    between atoms: _440  and  _441
REMARK  187  A    between atoms: _440  and  _443
REMARK  188  A    between atoms: _443  and  _444
REMARK  189  A    between atoms: _454  and  _456
REMARK  190  A    between atoms: _456  and  _457
REMARK  191  A    between atoms: _459  and  _461
REMARK  192  A    between atoms: _461  and  _462
REMARK  193  A    between atoms: _461  and  _464
REMARK  194  A    between atoms: _464  and  _465
REMARK  195  A    between atoms: _468  and  _470
REMARK  196  A    between atoms: _470  and  _471
REMARK  197  A    between atoms: _474  and  _476
REMARK  198  A    between atoms: _476  and  _477
REMARK  199  A    between atoms: _476  and  _479
REMARK  200  A    between atoms: _479  and  _480
REMARK  201  A    between atoms: _483  and  _485
REMARK  202  A    between atoms: _485  and  _486
REMARK  203  A    between atoms: _485  and  _488
REMARK  204  A    between atoms: _488  and  _489
REMARK  205  A    between atoms: _492  and  _494
REMARK  206  A    between atoms: _494  and  _495
REMARK  207  A    between atoms: _497  and  _499
REMARK  208  A    between atoms: _499  and  _500
REMARK  209  A    between atoms: _499  and  _502
REMARK  210  A    between atoms: _502  and  _503
REMARK  211  A    between atoms: _506  and  _508
REMARK  212  A    between atoms: _508  and  _509
REMARK  213  A    between atoms: _508  and  _511
REMARK  214  A    between atoms: _511  and  _512
REMARK  215  A    between atoms: _515  and  _517
REMARK  216  A    between atoms: _517  and  _518
REMARK  217  A    between atoms: _517  and  _520
REMARK  218  A    between atoms: _520  and  _521
REMARK  219  A    between atoms: _524  and  _526
REMARK  220  A    between atoms: _526  and  _527
REMARK  221  A    between atoms: _526  and  _529
REMARK  222  A    between atoms: _529  and  _530
REMARK  223  A    between atoms: _533  and  _535
REMARK  224  A    between atoms: _535  and  _536
REMARK  225  A    between atoms: _535  and  _538
REMARK  226  A    between atoms: _538  and  _539
REMARK  227  A    between atoms: _544  and  _545
REMARK  228  A    between atoms: _547  and  _549
REMARK  229  A    between atoms: _549  and  _550
REMARK  230  A    between atoms: _549  and  _552
REMARK  231  A    between atoms: _555  and  _557
REMARK  232  A    between atoms: _557  and  _558
REMARK  233  A    between atoms: _560  and  _562
REMARK  234  A    between atoms: _562  and  _563
REMARK  235  A    between atoms: _562  and  _565
REMARK  236  A    between atoms: _565  and  _566
REMARK  237  A    between atoms: _572  and  _574
REMARK  238  A    between atoms: _574  and  _575
REMARK  239  A    between atoms: _574  and  _577
REMARK  240  A    between atoms: _577  and  _578
REMARK  241  A    between atoms: _584  and  _586
REMARK  242  A    between atoms: _586  and  _587
REMARK  243  A    between atoms: _589  and  _591
REMARK  244  A    between atoms: _591  and  _592
REMARK  245  A    between atoms: _594  and  _596
REMARK  246  A    between atoms: _596  and  _597
REMARK  247  A    between atoms: _596  and  _599
REMARK  248  A    between atoms: _599  and  _600
REMARK  249  A    between atoms: _600  and  _601
REMARK  250  A    between atoms: _606  and  _608
REMARK  251  A    between atoms: _608  and  _609
REMARK  252  A    between atoms: _608  and  _611
REMARK  253  A    between atoms: _611  and  _612
REMARK  254  A    between atoms: _614  and  _616
REMARK  255  A    between atoms: _616  and  _617
REMARK  256  A    between atoms: _619  and  _621
REMARK  257  A    between atoms: _621  and  _622
REMARK  258  A    between atoms: _621  and  _624
REMARK  259  A    between atoms: _624  and  _625
REMARK  260  A    between atoms: _628  and  _630
REMARK  261  A    between atoms: _630  and  _631
REMARK  262  A    between atoms: _633  and  _635
REMARK  263  A    between atoms: _635  and  _636
REMARK  264  A    between atoms: _635  and  _638
REMARK  265  A    between atoms: _638  and  _639
REMARK  266  A    between atoms: _642  and  _644
REMARK  267  A    between atoms: _644  and  _645
REMARK  268  A    between atoms: _644  and  _647
REMARK  269  A    between atoms: _647  and  _648
REMARK  270  A    between atoms: _653  and  _655
REMARK  271  A    between atoms: _655  and  _656
REMARK  272  A    between atoms: _655  and  _658
REMARK  273  A    between atoms: _658  and  _659
REMARK  274  A    between atoms: _662  and  _664
REMARK  275  A    between atoms: _664  and  _665
REMARK  276  A    between atoms: _664  and  _667
REMARK  277  A    between atoms: _667  and  _668
REMARK  278  A    between atoms: _674  and  _676
REMARK  279  A    between atoms: _676  and  _677
REMARK  280  A    between atoms: _679  and  _681
REMARK  281  A    between atoms: _681  and  _682
REMARK  282  A    between atoms: _681  and  _684
REMARK  283  A    between atoms: _684  and  _685
REMARK                            x       y       z     vdW  Elec       q    Type
REMARK                         _______ _______ _______ _____ _____    ______ ____
ROOT
ATOM      1  CA  ASP A   3       7.739  22.587  18.602  0.00  0.00    +0.160 C 
ENDROOT
BRANCH   1   2
ATOM      2  C   ASP A   3       8.246  23.726  17.708  0.00  0.00    +0.241 C 
ATOM      3  N   ALA A   4       9.555  23.798  17.585  0.00  0.00    -0.297 N 
ATOM      4  H   ALA A   4      10.145  23.108  18.092  0.00  0.00    +0.150 HD
ATOM      5  O   ASP A   3       7.465  24.505  17.150  0.00  0.00    -0.273 OA
BRANCH   3   6
ATOM      6  CA  ALA A   4      10.213  24.820  16.755  0.00  0.00    +0.149 C 
ATOM      7  CB  ALA A   4      10.296  26.142  17.524  0.00  0.00    +0.031 C 
BRANCH   6   8
ATOM      8  C   ALA A   4      11.620  24.354  16.397  0.00  0.00    +0.241 C 
ATOM      9  O   ALA A   4      12.127  23.378  16.960  0.00  0.00    -0.273 OA
ATOM     10  N   TYR A   5      12.224  25.060  15.458  0.00  0.00    -0.298 N 
ATOM     11  H   TYR A   5      11.715  25.851  15.015  0.00  0.00    +0.150 HD
BRANCH  10  12
ATOM     12  CA  TYR A   5      13.599  24.759  15.020  0.00  0.00    +0.141 C 
BRANCH  12  13
ATOM     13  C   TYR A   5      14.494  25.976  15.242  0.00  0.00    +0.227 C 
ATOM     14  O   TYR A   5      14.099  27.117  14.967  0.00  0.00    -0.286 OA
ENDBRANCH  12  13
BRANCH  12  15
ATOM     15  CB  TYR A   5      13.628  24.385  13.539  0.00  0.00    +0.054 C 
BRANCH  15  16
ATOM     16  CG  TYR A   5      12.792  23.148  13.232  0.00  0.00    -0.020 A 
ATOM     17  CD2 TYR A   5      11.401  23.247  13.218  0.00  0.00    -0.001 A 
ATOM     18  CE2 TYR A   5      10.623  22.117  12.944  0.00  0.00    +0.036 A 
ATOM     19  CZ  TYR A   5      11.241  20.888  12.683  0.00  0.00    +0.134 A 
ATOM     20  CE1 TYR A   5      12.638  20.789  12.697  0.00  0.00    +0.036 A 
ATOM     21  CD1 TYR A   5      13.416  21.921  12.972  0.00  0.00    -0.001 A 
BRANCH  19  22
ATOM     22  OH  TYR A   5      10.481  19.792  12.418  0.00  0.00    -0.506 OA
ATOM     23  HH  TYR A   5      11.071  19.014  12.258  0.00  0.00    +0.292 HD
ENDBRANCH  19  22
ENDBRANCH  15  16
ENDBRANCH  12  15
ENDBRANCH  10  12
ENDBRANCH   6   8
ENDBRANCH   3   6
ENDBRANCH   1   2
BRANCH   1  25
ATOM     24  C   ASP A   2       8.622  20.796  17.209  0.00  0.00    +0.241 C 
ATOM     25  N   ASP A   3       8.560  21.378  18.393  0.00  0.00    -0.297 N 
ATOM     26  H   ASP A   3       9.097  20.979  19.189  0.00  0.00    +0.150 HD
ATOM     27  O   ASP A   2       8.002  21.231  16.235  0.00  0.00    -0.273 OA
BRANCH  24  28
ATOM     28  CA  ASP A   2       9.507  19.549  17.092  0.00  0.00    +0.160 C 
BRANCH  28  30
ATOM     29  C   LEU A   1       8.108  18.149  18.595  0.00  0.00    +0.238 C 
ATOM     30  N   ASP A   2       9.214  18.590  18.167  0.00  0.00    -0.297 N 
ATOM     31  H   ASP A   2      10.052  18.213  18.655  0.00  0.00    +0.150 HD
ATOM     32  O   LEU A   1       7.074  18.268  17.937  0.00  0.00    -0.274 OA
BRANCH  29  33
ATOM     33  CA  LEU A   1       8.026  17.515  19.987  0.00  0.00    +0.145 C 
BRANCH  33  34
ATOM     34  N   LEU A   1       9.365  17.378  20.578  0.00  0.00    -0.238 NA
ATOM     35  H   LEU A   1       9.807  18.216  21.006  0.00  0.00    +0.142 HD
ENDBRANCH  33  34
BRANCH  33  36
ATOM     36  CB  LEU A   1       7.129  18.363  20.872  0.00  0.00    +0.026 C 
BRANCH  36  37
ATOM     37  CG  LEU A   1       6.575  17.637  22.082  0.00  0.00    +0.002 C 
ATOM     38  CD2 LEU A   1       5.655  18.545  22.885  0.00  0.00    +0.000 C 
ATOM     39  CD1 LEU A   1       5.906  16.307  21.780  0.00  0.00    +0.000 C 
ENDBRANCH  36  37
ENDBRANCH  33  36
ENDBRANCH  29  33
ENDBRANCH  28  30
BRANCH  28  40
ATOM     40  CB  ASP A   2       9.196  18.943  15.717  0.00  0.00    +0.143 C 
BRANCH  40  41
ATOM     41  CG  ASP A   2      10.027  17.707  15.372  0.00  0.00    +0.367 C 
ATOM     42  OD2 ASP A   2      11.074  17.420  16.061  0.00  0.00    -0.246 OA
ATOM     43  OD1 ASP A   2       9.676  16.952  14.386  0.00  0.00    -0.246 OA
ENDBRANCH  40  41
ENDBRANCH  28  40
ENDBRANCH  24  28
ENDBRANCH   1  25
BRANCH   1  44
ATOM     44  CB  ASP A   3       7.783  23.026  20.061  0.00  0.00    +0.143 C 
BRANCH  44  45
ATOM     45  CG  ASP A   3       6.662  22.398  20.885  0.00  0.00    +0.367 C 
ATOM     46  OD2 ASP A   3       6.946  21.724  21.944  0.00  0.00    -0.246 OA
ATOM     47  OD1 ASP A   3       5.435  22.535  20.517  0.00  0.00    -0.246 OA
ENDBRANCH  44  45
ENDBRANCH   1  44
TORSDOF 19
REMARK  Name = ../refined-set-2016/5er2/5er2_pocket.pdb
REMARK  283 active torsions:
REMARK  status: ('A' for Active; 'I' for Inactive)
REMARK    1  A    between atoms: _1  and  _3
REMARK    2  A    between atoms: _3  and  _4
REMARK    3  A    between atoms: _3  and  _6
REMARK    4  A    between atoms: _6  and  _7
REMARK    5  A    between atoms: _10  and  _12
REMARK    6  A    between atoms: _12  and  _13
REMARK    7  A    between atoms: _12  and  _15
REMARK    8  A    between atoms: _15  and  _16
REMARK    9  A    between atoms: _19  and  _21
REMARK   10  A    between atoms: _21  and  _22
REMARK   11  A    between atoms: _21  and  _24
REMARK   12  A    between atoms: _24  and  _25
REMARK   13  A    between atoms: _28  and  _30
REMARK   14  A    between atoms: _30  and  _31
REMARK   15  A    between atoms: _30  and  _33
REMARK   16  A    between atoms: _33  and  _34
REMARK   17  A    between atoms: _37  and  _39
REMARK   18  A    between atoms: _39  and  _40
REMARK   19  A    between atoms: _39  and  _42
REMARK   20  A    between atoms: _42  and  _43
REMARK   21  A    between atoms: _46  and  _48
REMARK   22  A    between atoms: _48  and  _49
REMARK   23  A    between atoms: _52  and  _54
REMARK   24  A    between atoms: _54  and  _55
REMARK   25  A    between atoms: _54  and  _57
REMARK   26  A    between atoms: _57  and  _58
REMARK   27  A    between atoms: _63  and  _64
REMARK   28  A    between atoms: _66  and  _68
REMARK   29  A    between atoms: _68  and  _69
REMARK   30  A    between atoms: _68  and  _71
REMARK   31  A    between atoms: _71  and  _72
REMARK   32  A    between atoms: _75  and  _77
REMARK   33  A    between atoms: _77  and  _78
REMARK   34  A    between atoms: _77  and  _80
REMARK   35  A    between atoms: _80  and  _81
REMARK   36  A    between atoms: _87  and  _89
REMARK   37  A    between atoms: _89  and  _90
REMARK   38  A    between atoms: _89  and  _92
REMARK   39  A    between atoms: _92  and  _93
REMARK   40  A    between atoms: _96  and  _98
REMARK   41  A    between atoms: _98  and  _99
REMARK   42  A    between atoms: _98  and  _101
REMARK   43  A    between atoms: _101  and  _102
REMARK   44  A    between atoms: _105  and  _107
REMARK   45  A    between atoms: _107  and  _108
REMARK   46  A    between atoms: _110  and  _112
REMARK   47  A    between atoms: _112  and  _113
REMARK   48  A    between atoms: _112  and  _115
REMARK   49  A    between atoms: _115  and  _116
REMARK   50  A    between atoms: _118  and  _120
REMARK   51  A    between atoms: _120  and  _121
REMARK   52  A    between atoms: _120  and  _123
REMARK   53  A    between atoms: _123  and  _124
REMARK   54  A    between atoms: _126  and  _128
REMARK   55  A    between atoms: _128  and  _129
REMARK   56  A    between atoms: _128  and  _131
REMARK   57  A    between atoms: _131  and  _132
REMARK   58  A    between atoms: _135  and  _137
REMARK   59  A    between atoms: _137  and  _138
REMARK   60  A    between atoms: _137  and  _140
REMARK   61  A    between atoms: _140  and  _141
REMARK   62  A    between atoms: _151  and  _153
REMARK   63  A    between atoms: _153  and  _154
REMARK   64  A    between atoms: _153  and  _156
REMARK   65  A    between atoms: _156  and  _157
REMARK   66  A    between atoms: _159  and  _161
REMARK   67  A    between atoms: _161  and  _162
REMARK   68  A    between atoms: _161  and  _164
REMARK   69  A    between atoms: _164  and  _165
REMARK   70  A    between atoms: _168  and  _170
REMARK   71  A    between atoms: _170  and  _171
REMARK   72  A    between atoms: _170  and  _173
REMARK   73  A    between atoms: _173  and  _174
REMARK   74  A    between atoms: _176  and  _178
REMARK   75  A    between atoms: _178  and  _179
REMARK   76  A    between atoms: _178  and  _181
REMARK   77  A    between atoms: _181  and  _182
REMARK   78  A    between atoms: _187  and  _188
REMARK   79  A    between atoms: _190  and  _192
REMARK   80  A    between atoms: _192  and  _193
REMARK   81  A    between atoms: _195  and  _197
REMARK   82  A    between atoms: _197  and  _198
REMARK   83  A    between atoms: _197  and  _200
REMARK   84  A    between atoms: _200  and  _201
REMARK   85  A    between atoms: _204  and  _206
REMARK   86  A    between atoms: _206  and  _207
REMARK   87  A    between atoms: _209  and  _211
REMARK   88  A    between atoms: _211  and  _212
REMARK   89  A    between atoms: _211  and  _214
REMARK   90  A    between atoms: _214  and  _215
REMARK   91  A    between atoms: _217  and  _219
REMARK   92  A    between atoms: _219  and  _220
REMARK   93  A    between atoms: _219  and  _222
REMARK   94  A    between atoms: _222  and  _223
REMARK   95  A    between atoms: _225  and  _227
REMARK   96  A    between atoms: _227  and  _228
REMARK   97  A    between atoms: _227  and  _230
REMARK   98  A    between atoms: _230  and  _231
REMARK   99  A    between atoms: _233  and  _235
REMARK  100  A    between atoms: _235  and  _236
REMARK  101  A    between atoms: _235  and  _238
REMARK  102  A    between atoms: _238  and  _239
REMARK  103  A    between atoms: _241  and  _243
REMARK  104  A    between atoms: _243  and  _244
REMARK  105  A    between atoms: _243  and  _246
REMARK  106  A    between atoms: _246  and  _247
REMARK  107  A    between atoms: _253  and  _255
REMARK  108  A    between atoms: _255  and  _256
REMARK  109  A    between atoms: _255  and  _258
REMARK  110  A    between atoms: _258  and  _259
REMARK  111  A    between atoms: _259  and  _260
REMARK  112  A    between atoms: _263  and  _265
REMARK  113  A    between atoms: _265  and  _266
REMARK  114  A    between atoms: _265  and  _268
REMARK  115  A    between atoms: _268  and  _269
REMARK  116  A    between atoms: _272  and  _274
REMARK  117  A    between atoms: _274  and  _275
REMARK  118  A    between atoms: _274  and  _277
REMARK  119  A    between atoms: _277  and  _278
REMARK  120  A    between atoms: _280  and  _282
REMARK  121  A    between atoms: _282  and  _283
REMARK  122  A    between atoms: _282  and  _285
REMARK  123  A    between atoms: _285  and  _286
REMARK  124  A    between atoms: _289  and  _291
REMARK  125  A    between atoms: _291  and  _292
REMARK  126  A    between atoms: _291  and  _294
REMARK  127  A    between atoms: _294  and  _295
REMARK  128  A    between atoms: _298  and  _300
REMARK  129  A    between atoms: _300  and  _301
REMARK  130  A    between atoms: _303  and  _305
REMARK  131  A    between atoms: _305  and  _306
REMARK  132  A    between atoms: _305  and  _308
REMARK  133  A    between atoms: _308  and  _309
REMARK  134  A    between atoms: _312  and  _314
REMARK  135  A    between atoms: _314  and  _315
REMARK  136  A    between atoms: _314  and  _317
REMARK  137  A    between atoms: _317  and  _318
REMARK  138  A    between atoms: _321  and  _323
REMARK  139  A    between atoms: _323  and  _324
REMARK  140  A    between atoms: _323  and  _326
REMARK  141  A    between atoms: _326  and  _327
REMARK  142  A    between atoms: _330  and  _332
REMARK  143  A    between atoms: _332  and  _333
REMARK  144  A    between atoms: _336  and  _338
REMARK  145  A    between atoms: _338  and  _339
REMARK  146  A    between atoms: _338  and  _341
REMARK  147  A    between atoms: _341  and  _342
REMARK  148  A    between atoms: _348  and  _350
REMARK  149  A    between atoms: _350  and  _351
REMARK  150  A    between atoms: _350  and  _353
REMARK  151  A    between atoms: _353  and  _354
REMARK  152  A    between atoms: _356  and  _358
REMARK  153  A    between atoms: _358  and  _359
REMARK  154  A    between atoms: _358  and  _361
REMARK  155  A    between atoms: _361  and  _362
REMARK  156  A    between atoms: _365  and  _367
REMARK  157  A    between atoms: _367  and  _368
REMARK  158  A    between atoms: _367  and  _370
REMARK  159  A    between atoms: _370  and  _371
REMARK  160  A    between atoms: _374  and  _376
REMARK  161  A    between atoms: _376  and  _377
REMARK  162  A    between atoms: _376  and  _379
REMARK  163  A    between atoms: _379  and  _380
REMARK  164  A    between atoms: _385  and  _387
REMARK  165  A    between atoms: _387  and  _388
REMARK  166  A    between atoms: _387  and  _390
REMARK  167  A    between atoms: _390  and  _391
REMARK  168  A    between atoms: _394  and  _396
REMARK  169  A    between atoms: _396  and  _397
REMARK  170  A    between atoms: _396  and  _399
REMARK  171  A    between atoms: _402  and  _404
REMARK  172  A    between atoms: _404  and  _405
REMARK  173  A    between atoms: _404  and  _407
REMARK  174  A    between atoms: _407  and  _408
REMARK  175  A    between atoms: _408  and  _409
REMARK  176  A    between atoms: _414  and  _416
REMARK  177  A    between atoms: _416  and  _417
REMARK  178  A    between atoms: _416  and  _419
REMARK  179  A    between atoms: _419  and  _420
REMARK  180  A    between atoms: _420  and  _421
REMARK  181  A    between atoms: _426  and  _428
REMARK  182  A    between atoms: _428  and  _429
REMARK  183  A    between atoms: _428  and  _431
REMARK  184  A    between atoms: _431  and  _432
REMARK  185  A    between atoms: _438  and  _440
REMARK  186  A    between atoms: _440  and  _441
REMARK  187  A    between atoms: _440  and  _443
REMARK  188  A    between atoms: _443  and  _444
REMARK  189  A    between atoms: _454  and  _456
REMARK  190  A    between atoms: _456  and  _457
REMARK  191  A    between atoms: _459  and  _461
REMARK  192  A    between atoms: _461  and  _462
REMARK  193  A    between atoms: _461  and  _464
REMARK  194  A    between atoms: _464  and  _465
REMARK  195  A    between atoms: _468  and  _470
REMARK  196  A    between atoms: _470  and  _471
REMARK  197  A    between atoms: _474  and  _476
REMARK  198  A    between atoms: _476  and  _477
REMARK  199  A    between atoms: _476  and  _479
REMARK  200  A    between atoms: _479  and  _480
REMARK  201  A    between atoms: _483  and  _485
REMARK  202  A    between atoms: _485  and  _486
REMARK  203  A    between atoms: _485  and  _488
REMARK  204  A    between atoms: _488  and  _489
REMARK  205  A    between atoms: _492  and  _494
REMARK  206  A    between atoms: _494  and  _495
REMARK  207  A    between atoms: _497  and  _499
REMARK  208  A    between atoms: _499  and  _500
REMARK  209  A    between atoms: _499  and  _502
REMARK  210  A    between atoms: _502  and  _503
REMARK  211  A    between atoms: _506  and  _508
REMARK  212  A    between atoms: _508  and  _509
REMARK  213  A    between atoms: _508  and  _511
REMARK  214  A    between atoms: _511  and  _512
REMARK  215  A    between atoms: _515  and  _517
REMARK  216  A    between atoms: _517  and  _518
REMARK  217  A    between atoms: _517  and  _520
REMARK  218  A    between atoms: _520  and  _521
REMARK  219  A    between atoms: _524  and  _526
REMARK  220  A    between atoms: _526  and  _527
REMARK  221  A    between atoms: _526  and  _529
REMARK  222  A    between atoms: _529  and  _530
REMARK  223  A    between atoms: _533  and  _535
REMARK  224  A    between atoms: _535  and  _536
REMARK  225  A    between atoms: _535  and  _538
REMARK  226  A    between atoms: _538  and  _539
REMARK  227  A    between atoms: _544  and  _545
REMARK  228  A    between atoms: _547  and  _549
REMARK  229  A    between atoms: _549  and  _550
REMARK  230  A    between atoms: _549  and  _552
REMARK  231  A    between atoms: _555  and  _557
REMARK  232  A    between atoms: _557  and  _558
REMARK  233  A    between atoms: _560  and  _562
REMARK  234  A    between atoms: _562  and  _563
REMARK  235  A    between atoms: _562  and  _565
REMARK  236  A    between atoms: _565  and  _566
REMARK  237  A    between atoms: _572  and  _574
REMARK  238  A    between atoms: _574  and  _575
REMARK  239  A    between atoms: _574  and  _577
REMARK  240  A    between atoms: _577  and  _578
REMARK  241  A    between atoms: _584  and  _586
REMARK  242  A    between atoms: _586  and  _587
REMARK  243  A    between atoms: _589  and  _591
REMARK  244  A    between atoms: _591  and  _592
REMARK  245  A    between atoms: _594  and  _596
REMARK  246  A    between atoms: _596  and  _597
REMARK  247  A    between atoms: _596  and  _599
REMARK  248  A    between atoms: _599  and  _600
REMARK  249  A    between atoms: _600  and  _601
REMARK  250  A    between atoms: _606  and  _608
REMARK  251  A    between atoms: _608  and  _609
REMARK  252  A    between atoms: _608  and  _611
REMARK  253  A    between atoms: _611  and  _612
REMARK  254  A    between atoms: _614  and  _616
REMARK  255  A    between atoms: _616  and  _617
REMARK  256  A    between atoms: _619  and  _621
REMARK  257  A    between atoms: _621  and  _622
REMARK  258  A    between atoms: _621  and  _624
REMARK  259  A    between atoms: _624  and  _625
REMARK  260  A    between atoms: _628  and  _630
REMARK  261  A    between atoms: _630  and  _631
REMARK  262  A    between atoms: _633  and  _635
REMARK  263  A    between atoms: _635  and  _636
REMARK  264  A    between atoms: _635  and  _638
REMARK  265  A    between atoms: _638  and  _639
REMARK  266  A    between atoms: _642  and  _644
REMARK  267  A    between atoms: _644  and  _645
REMARK  268  A    between atoms: _644  and  _647
REMARK  269  A    between atoms: _647  and  _648
REMARK  270  A    between atoms: _653  and  _655
REMARK  271  A    between atoms: _655  and  _656
REMARK  272  A    between atoms: _655  and  _658
REMARK  273  A    between atoms: _658  and  _659
REMARK  274  A    between atoms: _662  and  _664
REMARK  275  A    between atoms: _664  and  _665
REMARK  276  A    between atoms: _664  and  _667
REMARK  277  A    between atoms: _667  and  _668
REMARK  278  A    between atoms: _674  and  _676
REMARK  279  A    between atoms: _676  and  _677
REMARK  280  A    between atoms: _679  and  _681
REMARK  281  A    between atoms: _681  and  _682
REMARK  282  A    between atoms: _681  and  _684
REMARK  283  A    between atoms: _684  and  _685
REMARK                            x       y       z     vdW  Elec       q    Type
REMARK                         _______ _______ _______ _____ _____    ______ ____
ROOT
ATOM      1  CA  THR A   4       8.926  32.841   7.364  0.00  0.00    +0.176 C 
ENDROOT
BRANCH   1   2
ATOM      2  C   THR A   4       7.608  33.582   7.500  0.00  0.00    +0.243 C 
ATOM      3  N   GLY A   5       7.053  33.664   8.693  0.00  0.00    -0.295 N 
ATOM      4  H   GLY A   5       7.521  33.195   9.494  0.00  0.00    +0.150 HD
ATOM      5  O   THR A   4       7.121  34.085   6.487  0.00  0.00    -0.273 OA
BRANCH   3   6
ATOM      6  CA  GLY A   5       5.800  34.391   8.937  0.00  0.00    +0.176 C 
BRANCH   6   7
ATOM      7  C   GLY A   5       6.033  35.793   9.469  0.00  0.00    +0.243 C 
ATOM      8  O   GLY A   5       5.084  36.454   9.892  0.00  0.00    -0.273 OA
ATOM      9  N   SER A   6       7.258  36.282   9.468  0.00  0.00    -0.295 N 
ATOM     10  H   SER A   6       8.032  35.679   9.124  0.00  0.00    +0.150 HD
BRANCH   9  11
ATOM     11  CA  SER A   6       7.579  37.639   9.930  0.00  0.00    +0.178 C 
BRANCH  11  12
ATOM     12  C   SER A   6       8.854  38.145   9.280  0.00  0.00    +0.243 C 
ATOM     13  N   SER A   7       9.222  39.397   9.489  0.00  0.00    -0.295 N 
ATOM     14  H   SER A   7       8.711  39.968  10.192  0.00  0.00    +0.150 HD
ATOM     15  O   SER A   6       9.537  37.401   8.577  0.00  0.00    -0.273 OA
BRANCH  13  16
ATOM     16  CA  SER A   7      10.340  39.998   8.747  0.00  0.00    +0.178 C 
BRANCH  16  17
ATOM     17  C   SER A   7      11.210  40.835   9.669  0.00  0.00    +0.243 C 
ATOM     18  N   ASP A   8      11.275  40.497  10.940  0.00  0.00    -0.297 N 
ATOM     19  H   ASP A   8      10.664  39.738  11.305  0.00  0.00    +0.150 HD
ATOM     20  O   SER A   7      11.819  41.798   9.203  0.00  0.00    -0.273 OA
BRANCH  18  21
ATOM     21  CA  ASP A   8      12.207  41.186  11.849  0.00  0.00    +0.148 C 
BRANCH  21  22
ATOM     22  C   ASP A   8      13.331  40.253  12.259  0.00  0.00    +0.227 C 
ATOM     23  O   ASP A   8      13.073  39.123  12.668  0.00  0.00    -0.286 OA
ENDBRANCH  21  22
BRANCH  21  24
ATOM     24  CB  ASP A   8      11.473  41.683  13.098  0.00  0.00    +0.142 C 
BRANCH  24  25
ATOM     25  CG  ASP A   8      10.670  42.938  12.749  0.00  0.00    +0.367 C 
ATOM     26  OD2 ASP A   8      10.786  43.938  13.467  0.00  0.00    -0.246 OA
ATOM     27  OD1 ASP A   8       9.919  42.956  11.766  0.00  0.00    -0.246 OA
ENDBRANCH  24  25
ENDBRANCH  21  24
ENDBRANCH  18  21
ENDBRANCH  16  17
BRANCH  16  28
ATOM     28  CB  SER A   7       9.839  40.844   7.597  0.00  0.00    +0.166 C 
BRANCH  28  29
ATOM     29  OG  SER A   7       8.766  40.172   6.933  0.00  0.00    -0.380 OA
ATOM     30  H   SER A   7       8.443  40.730   6.182  0.00  0.00    +0.211 HD
ENDBRANCH  28  29
ENDBRANCH  16  28
ENDBRANCH  13  16
ENDBRANCH  11  12
BRANCH  11  31
ATOM     31  CB  SER A   6       7.675  37.706  11.432  0.00  0.00    +0.166 C 
BRANCH  31  32
ATOM     32  OG  SER A   6       8.894  37.167  11.943  0.00  0.00    -0.380 OA
ATOM     33  H   SER A   6       8.968  36.215  11.681  0.00  0.00    +0.211 HD
ENDBRANCH  31  32
ENDBRANCH  11  31
ENDBRANCH   9  11
ENDBRANCH   6   7
ENDBRANCH   3   6
ENDBRANCH   1   2
BRANCH   1  36
ATOM     34  C   ASP A   3       9.878  33.118   9.547  0.00  0.00    +0.241 C 
ATOM     35  O   ASP A   3       9.965  34.327   9.316  0.00  0.00    -0.273 OA
ATOM     36  N   THR A   4       9.360  32.291   8.653  0.00  0.00    -0.295 N 
ATOM     37  H   THR A   4       9.263  31.276   8.859  0.00  0.00    +0.150 HD
BRANCH  34  38
ATOM     38  CA  ASP A   3      10.376  32.587  10.880  0.00  0.00    +0.160 C 
BRANCH  38  41
ATOM     39  C   PHE A   2      12.410  31.221  11.088  0.00  0.00    +0.241 C 
ATOM     40  O   PHE A   2      11.795  30.154  11.103  0.00  0.00    -0.273 OA
ATOM     41  N   ASP A   3      11.833  32.380  10.850  0.00  0.00    -0.297 N 
ATOM     42  H   ASP A   3      12.440  33.195  10.628  0.00  0.00    +0.150 HD
BRANCH  39  43
ATOM     43  CA  PHE A   2      13.912  31.186  11.355  0.00  0.00    +0.153 C 
BRANCH  43  46
ATOM     44  C   ASP A   1      13.863  31.376  13.819  0.00  0.00    +0.239 C 
ATOM     45  O   ASP A   1      13.393  32.515  13.807  0.00  0.00    -0.274 OA
ATOM     46  N   PHE A   2      14.176  30.715  12.723  0.00  0.00    -0.297 N 
ATOM     47  H   PHE A   2      14.644  29.793  12.833  0.00  0.00    +0.150 HD
BRANCH  44  48
ATOM     48  CA  ASP A   1      14.109  30.694  15.158  0.00  0.00    +0.156 C 
BRANCH  48  49
ATOM     49  N   ASP A   1      15.280  31.287  15.826  0.00  0.00    -0.238 NA
ATOM     50  H   ASP A   1      15.089  31.999  16.560  0.00  0.00    +0.142 HD
ENDBRANCH  48  49
BRANCH  48  51
ATOM     51  CB  ASP A   1      12.864  30.858  16.039  0.00  0.00    +0.140 C 
BRANCH  51  52
ATOM     52  CG  ASP A   1      11.679  30.016  15.573  0.00  0.00    +0.367 C 
ATOM     53  OD2 ASP A   1      10.748  29.800  16.365  0.00  0.00    -0.246 OA
ATOM     54  OD1 ASP A   1      11.659  29.568  14.418  0.00  0.00    -0.246 OA
ENDBRANCH  51  52
ENDBRANCH  48  51
ENDBRANCH  44  48
ENDBRANCH  43  46
BRANCH  43  55
ATOM     55  CB  PHE A   2      14.571  30.244  10.342  0.00  0.00    +0.055 C 
BRANCH  55  56
ATOM     56  CG  PHE A   2      16.082  30.442  10.245  0.00  0.00    -0.020 A 
ATOM     57  CD2 PHE A   2      16.793  30.922  11.340  0.00  0.00    -0.004 A 
ATOM     58  CE2 PHE A   2      18.170  31.103  11.253  0.00  0.00    -0.000 A 
ATOM     59  CZ  PHE A   2      18.823  30.799  10.062  0.00  0.00    -0.000 A 
ATOM     60  CE1 PHE A   2      18.113  30.319   8.968  0.00  0.00    -0.000 A 
ATOM     61  CD1 PHE A   2      16.736  30.138   9.054  0.00  0.00    -0.004 A 
ENDBRANCH  55  56
ENDBRANCH  43  55
ENDBRANCH  39  43
ENDBRANCH  38  41
BRANCH  38  62
ATOM     62  CB  ASP A   3      10.000  33.579  11.989  0.00  0.00    +0.143 C 
BRANCH  62  63
ATOM     63  CG  ASP A   3       8.477  33.709  12.080  0.00  0.00    +0.367 C 
ATOM     64  OD2 ASP A   3       7.958  34.712  12.587  0.00  0.00    -0.246 OA
ATOM     65  OD1 ASP A   3       7.766  32.792  11.648  0.00  0.00    -0.246 OA
ENDBRANCH  62  63
ENDBRANCH  38  62
ENDBRANCH  34  38
ENDBRANCH   1  36
BRANCH   1  66
ATOM     66  CB  THR A   4       8.828  31.766   6.311  0.00  0.00    +0.137 C 
ATOM     67  CG2 THR A   4      10.173  31.175   6.028  0.00  0.00    +0.034 C 
BRANCH  66  68
ATOM     68  OG1 THR A   4       7.934  30.728   6.707  0.00  0.00    -0.382 OA
ATOM     69  HG1 THR A   4       7.032  31.109   6.852  0.00  0.00    +0.210 HD
ENDBRANCH  66  68
ENDBRANCH   1  66
TORSDOF 30
REMARK  Name = ../refined-set-2016/5er2/5er2_pocket.pdb
REMARK  283 active torsions:
REMARK  status: ('A' for Active; 'I' for Inactive)
REMARK    1  A    between atoms: _1  and  _3
REMARK    2  A    between atoms: _3  and  _4
REMARK    3  A    between atoms: _3  and  _6
REMARK    4  A    between atoms: _6  and  _7
REMARK    5  A    between atoms: _10  and  _12
REMARK    6  A    between atoms: _12  and  _13
REMARK    7  A    between atoms: _12  and  _15
REMARK    8  A    between atoms: _15  and  _16
REMARK    9  A    between atoms: _19  and  _21
REMARK   10  A    between atoms: _21  and  _22
REMARK   11  A    between atoms: _21  and  _24
REMARK   12  A    between atoms: _24  and  _25
REMARK   13  A    between atoms: _28  and  _30
REMARK   14  A    between atoms: _30  and  _31
REMARK   15  A    between atoms: _30  and  _33
REMARK   16  A    between atoms: _33  and  _34
REMARK   17  A    between atoms: _37  and  _39
REMARK   18  A    between atoms: _39  and  _40
REMARK   19  A    between atoms: _39  and  _42
REMARK   20  A    between atoms: _42  and  _43
REMARK   21  A    between atoms: _46  and  _48
REMARK   22  A    between atoms: _48  and  _49
REMARK   23  A    between atoms: _52  and  _54
REMARK   24  A    between atoms: _54  and  _55
REMARK   25  A    between atoms: _54  and  _57
REMARK   26  A    between atoms: _57  and  _58
REMARK   27  A    between atoms: _63  and  _64
REMARK   28  A    between atoms: _66  and  _68
REMARK   29  A    between atoms: _68  and  _69
REMARK   30  A    between atoms: _68  and  _71
REMARK   31  A    between atoms: _71  and  _72
REMARK   32  A    between atoms: _75  and  _77
REMARK   33  A    between atoms: _77  and  _78
REMARK   34  A    between atoms: _77  and  _80
REMARK   35  A    between atoms: _80  and  _81
REMARK   36  A    between atoms: _87  and  _89
REMARK   37  A    between atoms: _89  and  _90
REMARK   38  A    between atoms: _89  and  _92
REMARK   39  A    between atoms: _92  and  _93
REMARK   40  A    between atoms: _96  and  _98
REMARK   41  A    between atoms: _98  and  _99
REMARK   42  A    between atoms: _98  and  _101
REMARK   43  A    between atoms: _101  and  _102
REMARK   44  A    between atoms: _105  and  _107
REMARK   45  A    between atoms: _107  and  _108
REMARK   46  A    between atoms: _110  and  _112
REMARK   47  A    between atoms: _112  and  _113
REMARK   48  A    between atoms: _112  and  _115
REMARK   49  A    between atoms: _115  and  _116
REMARK   50  A    between atoms: _118  and  _120
REMARK   51  A    between atoms: _120  and  _121
REMARK   52  A    between atoms: _120  and  _123
REMARK   53  A    between atoms: _123  and  _124
REMARK   54  A    between atoms: _126  and  _128
REMARK   55  A    between atoms: _128  and  _129
REMARK   56  A    between atoms: _128  and  _131
REMARK   57  A    between atoms: _131  and  _132
REMARK   58  A    between atoms: _135  and  _137
REMARK   59  A    between atoms: _137  and  _138
REMARK   60  A    between atoms: _137  and  _140
REMARK   61  A    between atoms: _140  and  _141
REMARK   62  A    between atoms: _151  and  _153
REMARK   63  A    between atoms: _153  and  _154
REMARK   64  A    between atoms: _153  and  _156
REMARK   65  A    between atoms: _156  and  _157
REMARK   66  A    between atoms: _159  and  _161
REMARK   67  A    between atoms: _161  and  _162
REMARK   68  A    between atoms: _161  and  _164
REMARK   69  A    between atoms: _164  and  _165
REMARK   70  A    between atoms: _168  and  _170
REMARK   71  A    between atoms: _170  and  _171
REMARK   72  A    between atoms: _170  and  _173
REMARK   73  A    between atoms: _173  and  _174
REMARK   74  A    between atoms: _176  and  _178
REMARK   75  A    between atoms: _178  and  _179
REMARK   76  A    between atoms: _178  and  _181
REMARK   77  A    between atoms: _181  and  _182
REMARK   78  A    between atoms: _187  and  _188
REMARK   79  A    between atoms: _190  and  _192
REMARK   80  A    between atoms: _192  and  _193
REMARK   81  A    between atoms: _195  and  _197
REMARK   82  A    between atoms: _197  and  _198
REMARK   83  A    between atoms: _197  and  _200
REMARK   84  A    between atoms: _200  and  _201
REMARK   85  A    between atoms: _204  and  _206
REMARK   86  A    between atoms: _206  and  _207
REMARK   87  A    between atoms: _209  and  _211
REMARK   88  A    between atoms: _211  and  _212
REMARK   89  A    between atoms: _211  and  _214
REMARK   90  A    between atoms: _214  and  _215
REMARK   91  A    between atoms: _217  and  _219
REMARK   92  A    between atoms: _219  and  _220
REMARK   93  A    between atoms: _219  and  _222
REMARK   94  A    between atoms: _222  and  _223
REMARK   95  A    between atoms: _225  and  _227
REMARK   96  A    between atoms: _227  and  _228
REMARK   97  A    between atoms: _227  and  _230
REMARK   98  A    between atoms: _230  and  _231
REMARK   99  A    between atoms: _233  and  _235
REMARK  100  A    between atoms: _235  and  _236
REMARK  101  A    between atoms: _235  and  _238
REMARK  102  A    between atoms: _238  and  _239
REMARK  103  A    between atoms: _241  and  _243
REMARK  104  A    between atoms: _243  and  _244
REMARK  105  A    between atoms: _243  and  _246
REMARK  106  A    between atoms: _246  and  _247
REMARK  107  A    between atoms: _253  and  _255
REMARK  108  A    between atoms: _255  and  _256
REMARK  109  A    between atoms: _255  and  _258
REMARK  110  A    between atoms: _258  and  _259
REMARK  111  A    between atoms: _259  and  _260
REMARK  112  A    between atoms: _263  and  _265
REMARK  113  A    between atoms: _265  and  _266
REMARK  114  A    between atoms: _265  and  _268
REMARK  115  A    between atoms: _268  and  _269
REMARK  116  A    between atoms: _272  and  _274
REMARK  117  A    between atoms: _274  and  _275
REMARK  118  A    between atoms: _274  and  _277
REMARK  119  A    between atoms: _277  and  _278
REMARK  120  A    between atoms: _280  and  _282
REMARK  121  A    between atoms: _282  and  _283
REMARK  122  A    between atoms: _282  and  _285
REMARK  123  A    between atoms: _285  and  _286
REMARK  124  A    between atoms: _289  and  _291
REMARK  125  A    between atoms: _291  and  _292
REMARK  126  A    between atoms: _291  and  _294
REMARK  127  A    between atoms: _294  and  _295
REMARK  128  A    between atoms: _298  and  _300
REMARK  129  A    between atoms: _300  and  _301
REMARK  130  A    between atoms: _303  and  _305
REMARK  131  A    between atoms: _305  and  _306
REMARK  132  A    between atoms: _305  and  _308
REMARK  133  A    between atoms: _308  and  _309
REMARK  134  A    between atoms: _312  and  _314
REMARK  135  A    between atoms: _314  and  _315
REMARK  136  A    between atoms: _314  and  _317
REMARK  137  A    between atoms: _317  and  _318
REMARK  138  A    between atoms: _321  and  _323
REMARK  139  A    between atoms: _323  and  _324
REMARK  140  A    between atoms: _323  and  _326
REMARK  141  A    between atoms: _326  and  _327
REMARK  142  A    between atoms: _330  and  _332
REMARK  143  A    between atoms: _332  and  _333
REMARK  144  A    between atoms: _336  and  _338
REMARK  145  A    between atoms: _338  and  _339
REMARK  146  A    between atoms: _338  and  _341
REMARK  147  A    between atoms: _341  and  _342
REMARK  148  A    between atoms: _348  and  _350
REMARK  149  A    between atoms: _350  and  _351
REMARK  150  A    between atoms: _350  and  _353
REMARK  151  A    between atoms: _353  and  _354
REMARK  152  A    between atoms: _356  and  _358
REMARK  153  A    between atoms: _358  and  _359
REMARK  154  A    between atoms: _358  and  _361
REMARK  155  A    between atoms: _361  and  _362
REMARK  156  A    between atoms: _365  and  _367
REMARK  157  A    between atoms: _367  and  _368
REMARK  158  A    between atoms: _367  and  _370
REMARK  159  A    between atoms: _370  and  _371
REMARK  160  A    between atoms: _374  and  _376
REMARK  161  A    between atoms: _376  and  _377
REMARK  162  A    between atoms: _376  and  _379
REMARK  163  A    between atoms: _379  and  _380
REMARK  164  A    between atoms: _385  and  _387
REMARK  165  A    between atoms: _387  and  _388
REMARK  166  A    between atoms: _387  and  _390
REMARK  167  A    between atoms: _390  and  _391
REMARK  168  A    between atoms: _394  and  _396
REMARK  169  A    between atoms: _396  and  _397
REMARK  170  A    between atoms: _396  and  _399
REMARK  171  A    between atoms: _402  and  _404
REMARK  172  A    between atoms: _404  and  _405
REMARK  173  A    between atoms: _404  and  _407
REMARK  174  A    between atoms: _407  and  _408
REMARK  175  A    between atoms: _408  and  _409
REMARK  176  A    between atoms: _414  and  _416
REMARK  177  A    between atoms: _416  and  _417
REMARK  178  A    between atoms: _416  and  _419
REMARK  179  A    between atoms: _419  and  _420
REMARK  180  A    between atoms: _420  and  _421
REMARK  181  A    between atoms: _426  and  _428
REMARK  182  A    between atoms: _428  and  _429
REMARK  183  A    between atoms: _428  and  _431
REMARK  184  A    between atoms: _431  and  _432
REMARK  185  A    between atoms: _438  and  _440
REMARK  186  A    between atoms: _440  and  _441
REMARK  187  A    between atoms: _440  and  _443
REMARK  188  A    between atoms: _443  and  _444
REMARK  189  A    between atoms: _454  and  _456
REMARK  190  A    between atoms: _456  and  _457
REMARK  191  A    between atoms: _459  and  _461
REMARK  192  A    between atoms: _461  and  _462
REMARK  193  A    between atoms: _461  and  _464
REMARK  194  A    between atoms: _464  and  _465
REMARK  195  A    between atoms: _468  and  _470
REMARK  196  A    between atoms: _470  and  _471
REMARK  197  A    between atoms: _474  and  _476
REMARK  198  A    between atoms: _476  and  _477
REMARK  199  A    between atoms: _476  and  _479
REMARK  200  A    between atoms: _479  and  _480
REMARK  201  A    between atoms: _483  and  _485
REMARK  202  A    between atoms: _485  and  _486
REMARK  203  A    between atoms: _485  and  _488
REMARK  204  A    between atoms: _488  and  _489
REMARK  205  A    between atoms: _492  and  _494
REMARK  206  A    between atoms: _494  and  _495
REMARK  207  A    between atoms: _497  and  _499
REMARK  208  A    between atoms: _499  and  _500
REMARK  209  A    between atoms: _499  and  _502
REMARK  210  A    between atoms: _502  and  _503
REMARK  211  A    between atoms: _506  and  _508
REMARK  212  A    between atoms: _508  and  _509
REMARK  213  A    between atoms: _508  and  _511
REMARK  214  A    between atoms: _511  and  _512
REMARK  215  A    between atoms: _515  and  _517
REMARK  216  A    between atoms: _517  and  _518
REMARK  217  A    between atoms: _517  and  _520
REMARK  218  A    between atoms: _520  and  _521
REMARK  219  A    between atoms: _524  and  _526
REMARK  220  A    between atoms: _526  and  _527
REMARK  221  A    between atoms: _526  and  _529
REMARK  222  A    between atoms: _529  and  _530
REMARK  223  A    between atoms: _533  and  _535
REMARK  224  A    between atoms: _535  and  _536
REMARK  225  A    between atoms: _535  and  _538
REMARK  226  A    between atoms: _538  and  _539
REMARK  227  A    between atoms: _544  and  _545
REMARK  228  A    between atoms: _547  and  _549
REMARK  229  A    between atoms: _549  and  _550
REMARK  230  A    between atoms: _549  and  _552
REMARK  231  A    between atoms: _555  and  _557
REMARK  232  A    between atoms: _557  and  _558
REMARK  233  A    between atoms: _560  and  _562
REMARK  234  A    between atoms: _562  and  _563
REMARK  235  A    between atoms: _562  and  _565
REMARK  236  A    between atoms: _565  and  _566
REMARK  237  A    between atoms: _572  and  _574
REMARK  238  A    between atoms: _574  and  _575
REMARK  239  A    between atoms: _574  and  _577
REMARK  240  A    between atoms: _577  and  _578
REMARK  241  A    between atoms: _584  and  _586
REMARK  242  A    between atoms: _586  and  _587
REMARK  243  A    between atoms: _589  and  _591
REMARK  244  A    between atoms: _591  and  _592
REMARK  245  A    between atoms: _594  and  _596
REMARK  246  A    between atoms: _596  and  _597
REMARK  247  A    between atoms: _596  and  _599
REMARK  248  A    between atoms: _599  and  _600
REMARK  249  A    between atoms: _600  and  _601
REMARK  250  A    between atoms: _606  and  _608
REMARK  251  A    between atoms: _608  and  _609
REMARK  252  A    between atoms: _608  and  _611
REMARK  253  A    between atoms: _611  and  _612
REMARK  254  A    between atoms: _614  and  _616
REMARK  255  A    between atoms: _616  and  _617
REMARK  256  A    between atoms: _619  and  _621
REMARK  257  A    between atoms: _621  and  _622
REMARK  258  A    between atoms: _621  and  _624
REMARK  259  A    between atoms: _624  and  _625
REMARK  260  A    between atoms: _628  and  _630
REMARK  261  A    between atoms: _630  and  _631
REMARK  262  A    between atoms: _633  and  _635
REMARK  263  A    between atoms: _635  and  _636
REMARK  264  A    between atoms: _635  and  _638
REMARK  265  A    between atoms: _638  and  _639
REMARK  266  A    between atoms: _642  and  _644
REMARK  267  A    between atoms: _644  and  _645
REMARK  268  A    between atoms: _644  and  _647
REMARK  269  A    between atoms: _647  and  _648
REMARK  270  A    between atoms: _653  and  _655
REMARK  271  A    between atoms: _655  and  _656
REMARK  272  A    between atoms: _655  and  _658
REMARK  273  A    between atoms: _658  and  _659
REMARK  274  A    between atoms: _662  and  _664
REMARK  275  A    between atoms: _664  and  _665
REMARK  276  A    between atoms: _664  and  _667
REMARK  277  A    between atoms: _667  and  _668
REMARK  278  A    between atoms: _674  and  _676
REMARK  279  A    between atoms: _676  and  _677
REMARK  280  A    between atoms: _679  and  _681
REMARK  281  A    between atoms: _681  and  _682
REMARK  282  A    between atoms: _681  and  _684
REMARK  283  A    between atoms: _684  and  _685
REMARK                            x       y       z     vdW  Elec       q    Type
REMARK                         _______ _______ _______ _____ _____    ______ ____
ROOT
ATOM      1  CG  TRP A   1      13.284  40.015  17.678  0.00  0.00    -0.002 A 
ATOM      2  CD2 TRP A   1      13.257  39.398  18.932  0.00  0.00    +0.013 A 
ATOM      3  CE3 TRP A   1      14.086  39.445  20.055  0.00  0.00    +0.001 A 
ATOM      4  CZ3 TRP A   1      13.749  38.674  21.162  0.00  0.00    +0.000 A 
ATOM      5  CH2 TRP A   1      12.615  37.873  21.165  0.00  0.00    +0.001 A 
ATOM      6  CZ2 TRP A   1      11.798  37.833  20.045  0.00  0.00    +0.017 A 
ATOM      7  CE2 TRP A   1      12.129  38.582  18.973  0.00  0.00    +0.056 A 
ATOM      8  NE1 TRP A   1      11.491  38.680  17.833  0.00  0.00    -0.352 N 
ATOM      9  HE1 TRP A   1      10.613  38.182  17.582  0.00  0.00    +0.166 HD
ATOM     10  CD1 TRP A   1      12.207  39.588  16.993  0.00  0.00    +0.068 A 
ENDROOT
BRANCH   1  11
ATOM     11  CB  TRP A   1      14.322  41.000  17.172  0.00  0.00    +0.053 C 
BRANCH  11  12
ATOM     12  CA  TRP A   1      15.641  40.510  16.635  0.00  0.00    +0.137 C 
BRANCH  12  13
ATOM     13  N   TRP A   1      15.502  39.929  15.292  0.00  0.00    -0.239 NA
ATOM     14  H   TRP A   1      15.088  38.981  15.185  0.00  0.00    +0.142 HD
ENDBRANCH  12  13
BRANCH  12  15
ATOM     15  C   TRP A   1      16.286  39.524  17.589  0.00  0.00    +0.224 C 
ATOM     16  O   TRP A   1      16.105  38.319  17.435  0.00  0.00    -0.287 OA
ENDBRANCH  12  15
ENDBRANCH  11  12
ENDBRANCH   1  11
TORSDOF 4
REMARK  Name = ../refined-set-2016/5er2/5er2_pocket.pdb
REMARK  283 active torsions:
REMARK  status: ('A' for Active; 'I' for Inactive)
REMARK    1  A    between atoms: _1  and  _3
REMARK    2  A    between atoms: _3  and  _4
REMARK    3  A    between atoms: _3  and  _6
REMARK    4  A    between atoms: _6  and  _7
REMARK    5  A    between atoms: _10  and  _12
REMARK    6  A    between atoms: _12  and  _13
REMARK    7  A    between atoms: _12  and  _15
REMARK    8  A    between atoms: _15  and  _16
REMARK    9  A    between atoms: _19  and  _21
REMARK   10  A    between atoms: _21  and  _22
REMARK   11  A    between atoms: _21  and  _24
REMARK   12  A    between atoms: _24  and  _25
REMARK   13  A    between atoms: _28  and  _30
REMARK   14  A    between atoms: _30  and  _31
REMARK   15  A    between atoms: _30  and  _33
REMARK   16  A    between atoms: _33  and  _34
REMARK   17  A    between atoms: _37  and  _39
REMARK   18  A    between atoms: _39  and  _40
REMARK   19  A    between atoms: _39  and  _42
REMARK   20  A    between atoms: _42  and  _43
REMARK   21  A    between atoms: _46  and  _48
REMARK   22  A    between atoms: _48  and  _49
REMARK   23  A    between atoms: _52  and  _54
REMARK   24  A    between atoms: _54  and  _55
REMARK   25  A    between atoms: _54  and  _57
REMARK   26  A    between atoms: _57  and  _58
REMARK   27  A    between atoms: _63  and  _64
REMARK   28  A    between atoms: _66  and  _68
REMARK   29  A    between atoms: _68  and  _69
REMARK   30  A    between atoms: _68  and  _71
REMARK   31  A    between atoms: _71  and  _72
REMARK   32  A    between atoms: _75  and  _77
REMARK   33  A    between atoms: _77  and  _78
REMARK   34  A    between atoms: _77  and  _80
REMARK   35  A    between atoms: _80  and  _81
REMARK   36  A    between atoms: _87  and  _89
REMARK   37  A    between atoms: _89  and  _90
REMARK   38  A    between atoms: _89  and  _92
REMARK   39  A    between atoms: _92  and  _93
REMARK   40  A    between atoms: _96  and  _98
REMARK   41  A    between atoms: _98  and  _99
REMARK   42  A    between atoms: _98  and  _101
REMARK   43  A    between atoms: _101  and  _102
REMARK   44  A    between atoms: _105  and  _107
REMARK   45  A    between atoms: _107  and  _108
REMARK   46  A    between atoms: _110  and  _112
REMARK   47  A    between atoms: _112  and  _113
REMARK   48  A    between atoms: _112  and  _115
REMARK   49  A    between atoms: _115  and  _116
REMARK   50  A    between atoms: _118  and  _120
REMARK   51  A    between atoms: _120  and  _121
REMARK   52  A    between atoms: _120  and  _123
REMARK   53  A    between atoms: _123  and  _124
REMARK   54  A    between atoms: _126  and  _128
REMARK   55  A    between atoms: _128  and  _129
REMARK   56  A    between atoms: _128  and  _131
REMARK   57  A    between atoms: _131  and  _132
REMARK   58  A    between atoms: _135  and  _137
REMARK   59  A    between atoms: _137  and  _138
REMARK   60  A    between atoms: _137  and  _140
REMARK   61  A    between atoms: _140  and  _141
REMARK   62  A    between atoms: _151  and  _153
REMARK   63  A    between atoms: _153  and  _154
REMARK   64  A    between atoms: _153  and  _156
REMARK   65  A    between atoms: _156  and  _157
REMARK   66  A    between atoms: _159  and  _161
REMARK   67  A    between atoms: _161  and  _162
REMARK   68  A    between atoms: _161  and  _164
REMARK   69  A    between atoms: _164  and  _165
REMARK   70  A    between atoms: _168  and  _170
REMARK   71  A    between atoms: _170  and  _171
REMARK   72  A    between atoms: _170  and  _173
REMARK   73  A    between atoms: _173  and  _174
REMARK   74  A    between atoms: _176  and  _178
REMARK   75  A    between atoms: _178  and  _179
REMARK   76  A    between atoms: _178  and  _181
REMARK   77  A    between atoms: _181  and  _182
REMARK   78  A    between atoms: _187  and  _188
REMARK   79  A    between atoms: _190  and  _192
REMARK   80  A    between atoms: _192  and  _193
REMARK   81  A    between atoms: _195  and  _197
REMARK   82  A    between atoms: _197  and  _198
REMARK   83  A    between atoms: _197  and  _200
REMARK   84  A    between atoms: _200  and  _201
REMARK   85  A    between atoms: _204  and  _206
REMARK   86  A    between atoms: _206  and  _207
REMARK   87  A    between atoms: _209  and  _211
REMARK   88  A    between atoms: _211  and  _212
REMARK   89  A    between atoms: _211  and  _214
REMARK   90  A    between atoms: _214  and  _215
REMARK   91  A    between atoms: _217  and  _219
REMARK   92  A    between atoms: _219  and  _220
REMARK   93  A    between atoms: _219  and  _222
REMARK   94  A    between atoms: _222  and  _223
REMARK   95  A    between atoms: _225  and  _227
REMARK   96  A    between atoms: _227  and  _228
REMARK   97  A    between atoms: _227  and  _230
REMARK   98  A    between atoms: _230  and  _231
REMARK   99  A    between atoms: _233  and  _235
REMARK  100  A    between atoms: _235  and  _236
REMARK  101  A    between atoms: _235  and  _238
REMARK  102  A    between atoms: _238  and  _239
REMARK  103  A    between atoms: _241  and  _243
REMARK  104  A    between atoms: _243  and  _244
REMARK  105  A    between atoms: _243  and  _246
REMARK  106  A    between atoms: _246  and  _247
REMARK  107  A    between atoms: _253  and  _255
REMARK  108  A    between atoms: _255  and  _256
REMARK  109  A    between atoms: _255  and  _258
REMARK  110  A    between atoms: _258  and  _259
REMARK  111  A    between atoms: _259  and  _260
REMARK  112  A    between atoms: _263  and  _265
REMARK  113  A    between atoms: _265  and  _266
REMARK  114  A    between atoms: _265  and  _268
REMARK  115  A    between atoms: _268  and  _269
REMARK  116  A    between atoms: _272  and  _274
REMARK  117  A    between atoms: _274  and  _275
REMARK  118  A    between atoms: _274  and  _277
REMARK  119  A    between atoms: _277  and  _278
REMARK  120  A    between atoms: _280  and  _282
REMARK  121  A    between atoms: _282  and  _283
REMARK  122  A    between atoms: _282  and  _285
REMARK  123  A    between atoms: _285  and  _286
REMARK  124  A    between atoms: _289  and  _291
REMARK  125  A    between atoms: _291  and  _292
REMARK  126  A    between atoms: _291  and  _294
REMARK  127  A    between atoms: _294  and  _295
REMARK  128  A    between atoms: _298  and  _300
REMARK  129  A    between atoms: _300  and  _301
REMARK  130  A    between atoms: _303  and  _305
REMARK  131  A    between atoms: _305  and  _306
REMARK  132  A    between atoms: _305  and  _308
REMARK  133  A    between atoms: _308  and  _309
REMARK  134  A    between atoms: _312  and  _314
REMARK  135  A    between atoms: _314  and  _315
REMARK  136  A    between atoms: _314  and  _317
REMARK  137  A    between atoms: _317  and  _318
REMARK  138  A    between atoms: _321  and  _323
REMARK  139  A    between atoms: _323  and  _324
REMARK  140  A    between atoms: _323  and  _326
REMARK  141  A    between atoms: _326  and  _327
REMARK  142  A    between atoms: _330  and  _332
REMARK  143  A    between atoms: _332  and  _333
REMARK  144  A    between atoms: _336  and  _338
REMARK  145  A    between atoms: _338  and  _339
REMARK  146  A    between atoms: _338  and  _341
REMARK  147  A    between atoms: _341  and  _342
REMARK  148  A    between atoms: _348  and  _350
REMARK  149  A    between atoms: _350  and  _351
REMARK  150  A    between atoms: _350  and  _353
REMARK  151  A    between atoms: _353  and  _354
REMARK  152  A    between atoms: _356  and  _358
REMARK  153  A    between atoms: _358  and  _359
REMARK  154  A    between atoms: _358  and  _361
REMARK  155  A    between atoms: _361  and  _362
REMARK  156  A    between atoms: _365  and  _367
REMARK  157  A    between atoms: _367  and  _368
REMARK  158  A    between atoms: _367  and  _370
REMARK  159  A    between atoms: _370  and  _371
REMARK  160  A    between atoms: _374  and  _376
REMARK  161  A    between atoms: _376  and  _377
REMARK  162  A    between atoms: _376  and  _379
REMARK  163  A    between atoms: _379  and  _380
REMARK  164  A    between atoms: _385  and  _387
REMARK  165  A    between atoms: _387  and  _388
REMARK  166  A    between atoms: _387  and  _390
REMARK  167  A    between atoms: _390  and  _391
REMARK  168  A    between atoms: _394  and  _396
REMARK  169  A    between atoms: _396  and  _397
REMARK  170  A    between atoms: _396  and  _399
REMARK  171  A    between atoms: _402  and  _404
REMARK  172  A    between atoms: _404  and  _405
REMARK  173  A    between atoms: _404  and  _407
REMARK  174  A    between atoms: _407  and  _408
REMARK  175  A    between atoms: _408  and  _409
REMARK  176  A    between atoms: _414  and  _416
REMARK  177  A    between atoms: _416  and  _417
REMARK  178  A    between atoms: _416  and  _419
REMARK  179  A    between atoms: _419  and  _420
REMARK  180  A    between atoms: _420  and  _421
REMARK  181  A    between atoms: _426  and  _428
REMARK  182  A    between atoms: _428  and  _429
REMARK  183  A    between atoms: _428  and  _431
REMARK  184  A    between atoms: _431  and  _432
REMARK  185  A    between atoms: _438  and  _440
REMARK  186  A    between atoms: _440  and  _441
REMARK  187  A    between atoms: _440  and  _443
REMARK  188  A    between atoms: _443  and  _444
REMARK  189  A    between atoms: _454  and  _456
REMARK  190  A    between atoms: _456  and  _457
REMARK  191  A    between atoms: _459  and  _461
REMARK  192  A    between atoms: _461  and  _462
REMARK  193  A    between atoms: _461  and  _464
REMARK  194  A    between atoms: _464  and  _465
REMARK  195  A    between atoms: _468  and  _470
REMARK  196  A    between atoms: _470  and  _471
REMARK  197  A    between atoms: _474  and  _476
REMARK  198  A    between atoms: _476  and  _477
REMARK  199  A    between atoms: _476  and  _479
REMARK  200  A    between atoms: _479  and  _480
REMARK  201  A    between atoms: _483  and  _485
REMARK  202  A    between atoms: _485  and  _486
REMARK  203  A    between atoms: _485  and  _488
REMARK  204  A    between atoms: _488  and  _489
REMARK  205  A    between atoms: _492  and  _494
REMARK  206  A    between atoms: _494  and  _495
REMARK  207  A    between atoms: _497  and  _499
REMARK  208  A    between atoms: _499  and  _500
REMARK  209  A    between atoms: _499  and  _502
REMARK  210  A    between atoms: _502  and  _503
REMARK  211  A    between atoms: _506  and  _508
REMARK  212  A    between atoms: _508  and  _509
REMARK  213  A    between atoms: _508  and  _511
REMARK  214  A    between atoms: _511  and  _512
REMARK  215  A    between atoms: _515  and  _517
REMARK  216  A    between atoms: _517  and  _518
REMARK  217  A    between atoms: _517  and  _520
REMARK  218  A    between atoms: _520  and  _521
REMARK  219  A    between atoms: _524  and  _526
REMARK  220  A    between atoms: _526  and  _527
REMARK  221  A    between atoms: _526  and  _529
REMARK  222  A    between atoms: _529  and  _530
REMARK  223  A    between atoms: _533  and  _535
REMARK  224  A    between atoms: _535  and  _536
REMARK  225  A    between atoms: _535  and  _538
REMARK  226  A    between atoms: _538  and  _539
REMARK  227  A    between atoms: _544  and  _545
REMARK  228  A    between atoms: _547  and  _549
REMARK  229  A    between atoms: _549  and  _550
REMARK  230  A    between atoms: _549  and  _552
REMARK  231  A    between atoms: _555  and  _557
REMARK  232  A    between atoms: _557  and  _558
REMARK  233  A    between atoms: _560  and  _562
REMARK  234  A    between atoms: _562  and  _563
REMARK  235  A    between atoms: _562  and  _565
REMARK  236  A    between atoms: _565  and  _566
REMARK  237  A    between atoms: _572  and  _574
REMARK  238  A    between atoms: _574  and  _575
REMARK  239  A    between atoms: _574  and  _577
REMARK  240  A    between atoms: _577  and  _578
REMARK  241  A    between atoms: _584  and  _586
REMARK  242  A    between atoms: _586  and  _587
REMARK  243  A    between atoms: _589  and  _591
REMARK  244  A    between atoms: _591  and  _592
REMARK  245  A    between atoms: _594  and  _596
REMARK  246  A    between atoms: _596  and  _597
REMARK  247  A    between atoms: _596  and  _599
REMARK  248  A    between atoms: _599  and  _600
REMARK  249  A    between atoms: _600  and  _601
REMARK  250  A    between atoms: _606  and  _608
REMARK  251  A    between atoms: _608  and  _609
REMARK  252  A    between atoms: _608  and  _611
REMARK  253  A    between atoms: _611  and  _612
REMARK  254  A    between atoms: _614  and  _616
REMARK  255  A    between atoms: _616  and  _617
REMARK  256  A    between atoms: _619  and  _621
REMARK  257  A    between atoms: _621  and  _622
REMARK  258  A    between atoms: _621  and  _624
REMARK  259  A    between atoms: _624  and  _625
REMARK  260  A    between atoms: _628  and  _630
REMARK  261  A    between atoms: _630  and  _631
REMARK  262  A    between atoms: _633  and  _635
REMARK  263  A    between atoms: _635  and  _636
REMARK  264  A    between atoms: _635  and  _638
REMARK  265  A    between atoms: _638  and  _639
REMARK  266  A    between atoms: _642  and  _644
REMARK  267  A    between atoms: _644  and  _645
REMARK  268  A    between atoms: _644  and  _647
REMARK  269  A    between atoms: _647  and  _648
REMARK  270  A    between atoms: _653  and  _655
REMARK  271  A    between atoms: _655  and  _656
REMARK  272  A    between atoms: _655  and  _658
REMARK  273  A    between atoms: _658  and  _659
REMARK  274  A    between atoms: _662  and  _664
REMARK  275  A    between atoms: _664  and  _665
REMARK  276  A    between atoms: _664  and  _667
REMARK  277  A    between atoms: _667  and  _668
REMARK  278  A    between atoms: _674  and  _676
REMARK  279  A    between atoms: _676  and  _677
REMARK  280  A    between atoms: _679  and  _681
REMARK  281  A    between atoms: _681  and  _682
REMARK  282  A    between atoms: _681  and  _684
REMARK  283  A    between atoms: _684  and  _685
REMARK                            x       y       z     vdW  Elec       q    Type
REMARK                         _______ _______ _______ _____ _____    ______ ____
ROOT
ATOM      1  CA  TYR A   4       3.002  37.616  17.053  0.00  0.00    +0.153 C 
ENDROOT
BRANCH   1   3
ATOM      2  C   SER A   3       3.221  40.012  17.370  0.00  0.00    +0.243 C 
ATOM      3  N   TYR A   4       3.201  38.803  17.896  0.00  0.00    -0.297 N 
ATOM      4  H   TYR A   4       3.328  38.688  18.922  0.00  0.00    +0.150 HD
ATOM      5  O   SER A   3       3.029  40.267  16.180  0.00  0.00    -0.273 OA
BRANCH   2   6
ATOM      6  CA  SER A   3       3.521  41.185  18.293  0.00  0.00    +0.178 C 
BRANCH   6   9
ATOM      7  C   ILE A   2       5.398  42.670  18.032  0.00  0.00    +0.241 C 
ATOM      8  O   ILE A   2       5.800  42.428  19.169  0.00  0.00    -0.273 OA
ATOM      9  N   SER A   3       4.248  42.235  17.557  0.00  0.00    -0.295 N 
ATOM     10  H   SER A   3       3.859  42.627  16.676  0.00  0.00    +0.150 HD
BRANCH   7  11
ATOM     11  CA  ILE A   2       6.254  43.533  17.117  0.00  0.00    +0.148 C 
BRANCH  11  13
ATOM     12  C   SER A   1       7.002  45.815  17.368  0.00  0.00    +0.241 C 
ATOM     13  N   ILE A   2       6.917  44.604  17.881  0.00  0.00    -0.297 N 
ATOM     14  H   ILE A   2       7.316  44.405  18.821  0.00  0.00    +0.150 HD
ATOM     15  O   SER A   1       6.447  46.170  16.333  0.00  0.00    -0.274 OA
BRANCH  12  16
ATOM     16  CA  SER A   1       7.878  46.795  18.132  0.00  0.00    +0.174 C 
BRANCH  16  17
ATOM     17  N   SER A   1       8.833  47.440  17.219  0.00  0.00    -0.236 NA
ATOM     18  H   SER A   1       8.659  47.401  16.194  0.00  0.00    +0.142 HD
ENDBRANCH  16  17
BRANCH  16  19
ATOM     19  CB  SER A   1       7.027  47.819  18.845  0.00  0.00    +0.163 C 
BRANCH  19  20
ATOM     20  OG  SER A   1       5.971  47.174  19.561  0.00  0.00    -0.380 OA
ATOM     21  H   SER A   1       5.422  47.856  20.023  0.00  0.00    +0.211 HD
ENDBRANCH  19  20
ENDBRANCH  16  19
ENDBRANCH  12  16
ENDBRANCH  11  13
BRANCH  11  22
ATOM     22  CB  ILE A   2       7.287  42.668  16.409  0.00  0.00    +0.027 C 
ATOM     23  CG2 ILE A   2       8.037  41.789  17.400  0.00  0.00    +0.002 C 
BRANCH  22  24
ATOM     24  CG1 ILE A   2       6.645  41.838  15.310  0.00  0.00    +0.002 C 
ATOM     25  CD1 ILE A   2       7.590  41.309  14.246  0.00  0.00    +0.000 C 
ENDBRANCH  22  24
ENDBRANCH  11  22
ENDBRANCH   7  11
ENDBRANCH   6   9
BRANCH   6  26
ATOM     26  CB  SER A   3       2.245  41.728  18.889  0.00  0.00    +0.166 C 
BRANCH  26  27
ATOM     27  OG  SER A   3       1.761  40.842  19.902  0.00  0.00    -0.380 OA
ATOM     28  H   SER A   3       2.442  40.754  20.615  0.00  0.00    +0.211 HD
ENDBRANCH  26  27
ENDBRANCH   6  26
ENDBRANCH   2   6
ENDBRANCH   1   3
BRANCH   1  29
ATOM     29  C   TYR A   4       1.607  37.043  17.252  0.00  0.00    +0.241 C 
ATOM     30  O   TYR A   4       0.929  37.412  18.209  0.00  0.00    -0.273 OA
ATOM     31  N   GLY A   5       1.215  36.163  16.352  0.00  0.00    -0.295 N 
ATOM     32  H   GLY A   5       1.892  35.855  15.625  0.00  0.00    +0.150 HD
BRANCH  31  33
ATOM     33  CA  GLY A   5      -0.142  35.601  16.337  0.00  0.00    +0.176 C 
BRANCH  33  34
ATOM     34  C   GLY A   5      -0.499  35.078  17.720  0.00  0.00    +0.243 C 
ATOM     35  N   ASP A   6       0.475  34.490  18.385  0.00  0.00    -0.296 N 
ATOM     36  H   ASP A   6       1.428  34.502  17.970  0.00  0.00    +0.150 HD
ATOM     37  O   GLY A   5      -1.639  35.232  18.154  0.00  0.00    -0.273 OA
BRANCH  35  38
ATOM     38  CA  ASP A   6       0.293  33.819  19.677  0.00  0.00    +0.160 C 
BRANCH  38  39
ATOM     39  C   ASP A   6       0.171  34.831  20.804  0.00  0.00    +0.241 C 
ATOM     40  O   ASP A   6      -0.023  34.434  21.954  0.00  0.00    -0.273 OA
ATOM     41  N   GLY A   7       0.290  36.113  20.515  0.00  0.00    -0.295 N 
ATOM     42  H   GLY A   7       0.505  36.396  19.538  0.00  0.00    +0.150 HD
BRANCH  41  43
ATOM     43  CA  GLY A   7       0.126  37.149  21.544  0.00  0.00    +0.176 C 
BRANCH  43  44
ATOM     44  C   GLY A   7       1.447  37.610  22.129  0.00  0.00    +0.243 C 
ATOM     45  O   GLY A   7       1.493  38.534  22.942  0.00  0.00    -0.273 OA
ATOM     46  N   SER A   8       2.557  36.998  21.756  0.00  0.00    -0.295 N 
ATOM     47  H   SER A   8       2.525  36.236  21.049  0.00  0.00    +0.150 HD
BRANCH  46  48
ATOM     48  CA  SER A   8       3.842  37.407  22.353  0.00  0.00    +0.178 C 
BRANCH  48  49
ATOM     49  C   SER A   8       4.381  38.642  21.645  0.00  0.00    +0.243 C 
ATOM     50  N   SER A   9       5.255  39.387  22.296  0.00  0.00    -0.296 N 
ATOM     51  H   SER A   9       5.640  39.047  23.200  0.00  0.00    +0.150 HD
ATOM     52  O   SER A   8       3.996  38.897  20.505  0.00  0.00    -0.273 OA
BRANCH  50  53
ATOM     53  CA  SER A   9       5.695  40.686  21.771  0.00  0.00    +0.166 C 
BRANCH  53  54
ATOM     54  C   SER A   9       7.122  40.986  22.195  0.00  0.00    +0.229 C 
ATOM     55  O   SER A   9       7.664  40.392  23.123  0.00  0.00    -0.286 OA
ENDBRANCH  53  54
BRANCH  53  56
ATOM     56  CB  SER A   9       4.769  41.797  22.206  0.00  0.00    +0.165 C 
BRANCH  56  57
ATOM     57  OG  SER A   9       4.654  41.822  23.630  0.00  0.00    -0.380 OA
ATOM     58  H   SER A   9       4.291  40.957  23.946  0.00  0.00    +0.211 HD
ENDBRANCH  56  57
ENDBRANCH  53  56
ENDBRANCH  50  53
ENDBRANCH  48  49
BRANCH  48  59
ATOM     59  CB  SER A   8       4.849  36.281  22.278  0.00  0.00    +0.166 C 
BRANCH  59  60
ATOM     60  OG  SER A   8       5.101  35.971  20.904  0.00  0.00    -0.380 OA
ATOM     61  H   SER A   8       4.256  35.693  20.469  0.00  0.00    +0.211 HD
ENDBRANCH  59  60
ENDBRANCH  48  59
ENDBRANCH  46  48
ENDBRANCH  43  44
ENDBRANCH  41  43
ENDBRANCH  38  39
BRANCH  38  62
ATOM     62  CB  ASP A   6       1.468  32.878  19.969  0.00  0.00    +0.143 C 
BRANCH  62  63
ATOM     63  CG  ASP A   6       2.693  33.692  20.388  0.00  0.00    +0.367 C 
ATOM     64  OD2 ASP A   6       3.485  33.273  21.245  0.00  0.00    -0.246 OA
ATOM     65  OD1 ASP A   6       2.893  34.801  19.867  0.00  0.00    -0.246 OA
ENDBRANCH  62  63
ENDBRANCH  38  62
ENDBRANCH  35  38
ENDBRANCH  33  34
ENDBRANCH  31  33
ENDBRANCH   1  29
BRANCH   1  66
ATOM     66  CB  TYR A   4       4.045  36.551  17.347  0.00  0.00    +0.055 C 
BRANCH  66  67
ATOM     67  CG  TYR A   4       5.445  37.060  17.002  0.00  0.00    -0.020 A 
ATOM     68  CD2 TYR A   4       6.240  37.581  18.018  0.00  0.00    -0.001 A 
ATOM     69  CE2 TYR A   4       7.515  38.052  17.722  0.00  0.00    +0.036 A 
ATOM     70  CZ  TYR A   4       7.990  38.002  16.418  0.00  0.00    +0.134 A 
ATOM     71  CE1 TYR A   4       7.196  37.482  15.399  0.00  0.00    +0.036 A 
ATOM     72  CD1 TYR A   4       5.921  37.011  15.698  0.00  0.00    -0.001 A 
BRANCH  70  73
ATOM     73  OH  TYR A   4       9.256  38.474  16.136  0.00  0.00    -0.506 OA
ATOM     74  HH  TYR A   4       9.803  37.741  15.757  0.00  0.00    +0.292 HD
ENDBRANCH  70  73
ENDBRANCH  66  67
ENDBRANCH   1  66
TORSDOF 33
REMARK  Name = ../refined-set-2016/5er2/5er2_pocket.pdb
REMARK  283 active torsions:
REMARK  status: ('A' for Active; 'I' for Inactive)
REMARK    1  A    between atoms: _1  and  _3
REMARK    2  A    between atoms: _3  and  _4
REMARK    3  A    between atoms: _3  and  _6
REMARK    4  A    between atoms: _6  and  _7
REMARK    5  A    between atoms: _10  and  _12
REMARK    6  A    between atoms: _12  and  _13
REMARK    7  A    between atoms: _12  and  _15
REMARK    8  A    between atoms: _15  and  _16
REMARK    9  A    between atoms: _19  and  _21
REMARK   10  A    between atoms: _21  and  _22
REMARK   11  A    between atoms: _21  and  _24
REMARK   12  A    between atoms: _24  and  _25
REMARK   13  A    between atoms: _28  and  _30
REMARK   14  A    between atoms: _30  and  _31
REMARK   15  A    between atoms: _30  and  _33
REMARK   16  A    between atoms: _33  and  _34
REMARK   17  A    between atoms: _37  and  _39
REMARK   18  A    between atoms: _39  and  _40
REMARK   19  A    between atoms: _39  and  _42
REMARK   20  A    between atoms: _42  and  _43
REMARK   21  A    between atoms: _46  and  _48
REMARK   22  A    between atoms: _48  and  _49
REMARK   23  A    between atoms: _52  and  _54
REMARK   24  A    between atoms: _54  and  _55
REMARK   25  A    between atoms: _54  and  _57
REMARK   26  A    between atoms: _57  and  _58
REMARK   27  A    between atoms: _63  and  _64
REMARK   28  A    between atoms: _66  and  _68
REMARK   29  A    between atoms: _68  and  _69
REMARK   30  A    between atoms: _68  and  _71
REMARK   31  A    between atoms: _71  and  _72
REMARK   32  A    between atoms: _75  and  _77
REMARK   33  A    between atoms: _77  and  _78
REMARK   34  A    between atoms: _77  and  _80
REMARK   35  A    between atoms: _80  and  _81
REMARK   36  A    between atoms: _87  and  _89
REMARK   37  A    between atoms: _89  and  _90
REMARK   38  A    between atoms: _89  and  _92
REMARK   39  A    between atoms: _92  and  _93
REMARK   40  A    between atoms: _96  and  _98
REMARK   41  A    between atoms: _98  and  _99
REMARK   42  A    between atoms: _98  and  _101
REMARK   43  A    between atoms: _101  and  _102
REMARK   44  A    between atoms: _105  and  _107
REMARK   45  A    between atoms: _107  and  _108
REMARK   46  A    between atoms: _110  and  _112
REMARK   47  A    between atoms: _112  and  _113
REMARK   48  A    between atoms: _112  and  _115
REMARK   49  A    between atoms: _115  and  _116
REMARK   50  A    between atoms: _118  and  _120
REMARK   51  A    between atoms: _120  and  _121
REMARK   52  A    between atoms: _120  and  _123
REMARK   53  A    between atoms: _123  and  _124
REMARK   54  A    between atoms: _126  and  _128
REMARK   55  A    between atoms: _128  and  _129
REMARK   56  A    between atoms: _128  and  _131
REMARK   57  A    between atoms: _131  and  _132
REMARK   58  A    between atoms: _135  and  _137
REMARK   59  A    between atoms: _137  and  _138
REMARK   60  A    between atoms: _137  and  _140
REMARK   61  A    between atoms: _140  and  _141
REMARK   62  A    between atoms: _151  and  _153
REMARK   63  A    between atoms: _153  and  _154
REMARK   64  A    between atoms: _153  and  _156
REMARK   65  A    between atoms: _156  and  _157
REMARK   66  A    between atoms: _159  and  _161
REMARK   67  A    between atoms: _161  and  _162
REMARK   68  A    between atoms: _161  and  _164
REMARK   69  A    between atoms: _164  and  _165
REMARK   70  A    between atoms: _168  and  _170
REMARK   71  A    between atoms: _170  and  _171
REMARK   72  A    between atoms: _170  and  _173
REMARK   73  A    between atoms: _173  and  _174
REMARK   74  A    between atoms: _176  and  _178
REMARK   75  A    between atoms: _178  and  _179
REMARK   76  A    between atoms: _178  and  _181
REMARK   77  A    between atoms: _181  and  _182
REMARK   78  A    between atoms: _187  and  _188
REMARK   79  A    between atoms: _190  and  _192
REMARK   80  A    between atoms: _192  and  _193
REMARK   81  A    between atoms: _195  and  _197
REMARK   82  A    between atoms: _197  and  _198
REMARK   83  A    between atoms: _197  and  _200
REMARK   84  A    between atoms: _200  and  _201
REMARK   85  A    between atoms: _204  and  _206
REMARK   86  A    between atoms: _206  and  _207
REMARK   87  A    between atoms: _209  and  _211
REMARK   88  A    between atoms: _211  and  _212
REMARK   89  A    between atoms: _211  and  _214
REMARK   90  A    between atoms: _214  and  _215
REMARK   91  A    between atoms: _217  and  _219
REMARK   92  A    between atoms: _219  and  _220
REMARK   93  A    between atoms: _219  and  _222
REMARK   94  A    between atoms: _222  and  _223
REMARK   95  A    between atoms: _225  and  _227
REMARK   96  A    between atoms: _227  and  _228
REMARK   97  A    between atoms: _227  and  _230
REMARK   98  A    between atoms: _230  and  _231
REMARK   99  A    between atoms: _233  and  _235
REMARK  100  A    between atoms: _235  and  _236
REMARK  101  A    between atoms: _235  and  _238
REMARK  102  A    between atoms: _238  and  _239
REMARK  103  A    between atoms: _241  and  _243
REMARK  104  A    between atoms: _243  and  _244
REMARK  105  A    between atoms: _243  and  _246
REMARK  106  A    between atoms: _246  and  _247
REMARK  107  A    between atoms: _253  and  _255
REMARK  108  A    between atoms: _255  and  _256
REMARK  109  A    between atoms: _255  and  _258
REMARK  110  A    between atoms: _258  and  _259
REMARK  111  A    between atoms: _259  and  _260
REMARK  112  A    between atoms: _263  and  _265
REMARK  113  A    between atoms: _265  and  _266
REMARK  114  A    between atoms: _265  and  _268
REMARK  115  A    between atoms: _268  and  _269
REMARK  116  A    between atoms: _272  and  _274
REMARK  117  A    between atoms: _274  and  _275
REMARK  118  A    between atoms: _274  and  _277
REMARK  119  A    between atoms: _277  and  _278
REMARK  120  A    between atoms: _280  and  _282
REMARK  121  A    between atoms: _282  and  _283
REMARK  122  A    between atoms: _282  and  _285
REMARK  123  A    between atoms: _285  and  _286
REMARK  124  A    between atoms: _289  and  _291
REMARK  125  A    between atoms: _291  and  _292
REMARK  126  A    between atoms: _291  and  _294
REMARK  127  A    between atoms: _294  and  _295
REMARK  128  A    between atoms: _298  and  _300
REMARK  129  A    between atoms: _300  and  _301
REMARK  130  A    between atoms: _303  and  _305
REMARK  131  A    between atoms: _305  and  _306
REMARK  132  A    between atoms: _305  and  _308
REMARK  133  A    between atoms: _308  and  _309
REMARK  134  A    between atoms: _312  and  _314
REMARK  135  A    between atoms: _314  and  _315
REMARK  136  A    between atoms: _314  and  _317
REMARK  137  A    between atoms: _317  and  _318
REMARK  138  A    between atoms: _321  and  _323
REMARK  139  A    between atoms: _323  and  _324
REMARK  140  A    between atoms: _323  and  _326
REMARK  141  A    between atoms: _326  and  _327
REMARK  142  A    between atoms: _330  and  _332
REMARK  143  A    between atoms: _332  and  _333
REMARK  144  A    between atoms: _336  and  _338
REMARK  145  A    between atoms: _338  and  _339
REMARK  146  A    between atoms: _338  and  _341
REMARK  147  A    between atoms: _341  and  _342
REMARK  148  A    between atoms: _348  and  _350
REMARK  149  A    between atoms: _350  and  _351
REMARK  150  A    between atoms: _350  and  _353
REMARK  151  A    between atoms: _353  and  _354
REMARK  152  A    between atoms: _356  and  _358
REMARK  153  A    between atoms: _358  and  _359
REMARK  154  A    between atoms: _358  and  _361
REMARK  155  A    between atoms: _361  and  _362
REMARK  156  A    between atoms: _365  and  _367
REMARK  157  A    between atoms: _367  and  _368
REMARK  158  A    between atoms: _367  and  _370
REMARK  159  A    between atoms: _370  and  _371
REMARK  160  A    between atoms: _374  and  _376
REMARK  161  A    between atoms: _376  and  _377
REMARK  162  A    between atoms: _376  and  _379
REMARK  163  A    between atoms: _379  and  _380
REMARK  164  A    between atoms: _385  and  _387
REMARK  165  A    between atoms: _387  and  _388
REMARK  166  A    between atoms: _387  and  _390
REMARK  167  A    between atoms: _390  and  _391
REMARK  168  A    between atoms: _394  and  _396
REMARK  169  A    between atoms: _396  and  _397
REMARK  170  A    between atoms: _396  and  _399
REMARK  171  A    between atoms: _402  and  _404
REMARK  172  A    between atoms: _404  and  _405
REMARK  173  A    between atoms: _404  and  _407
REMARK  174  A    between atoms: _407  and  _408
REMARK  175  A    between atoms: _408  and  _409
REMARK  176  A    between atoms: _414  and  _416
REMARK  177  A    between atoms: _416  and  _417
REMARK  178  A    between atoms: _416  and  _419
REMARK  179  A    between atoms: _419  and  _420
REMARK  180  A    between atoms: _420  and  _421
REMARK  181  A    between atoms: _426  and  _428
REMARK  182  A    between atoms: _428  and  _429
REMARK  183  A    between atoms: _428  and  _431
REMARK  184  A    between atoms: _431  and  _432
REMARK  185  A    between atoms: _438  and  _440
REMARK  186  A    between atoms: _440  and  _441
REMARK  187  A    between atoms: _440  and  _443
REMARK  188  A    between atoms: _443  and  _444
REMARK  189  A    between atoms: _454  and  _456
REMARK  190  A    between atoms: _456  and  _457
REMARK  191  A    between atoms: _459  and  _461
REMARK  192  A    between atoms: _461  and  _462
REMARK  193  A    between atoms: _461  and  _464
REMARK  194  A    between atoms: _464  and  _465
REMARK  195  A    between atoms: _468  and  _470
REMARK  196  A    between atoms: _470  and  _471
REMARK  197  A    between atoms: _474  and  _476
REMARK  198  A    between atoms: _476  and  _477
REMARK  199  A    between atoms: _476  and  _479
REMARK  200  A    between atoms: _479  and  _480
REMARK  201  A    between atoms: _483  and  _485
REMARK  202  A    between atoms: _485  and  _486
REMARK  203  A    between atoms: _485  and  _488
REMARK  204  A    between atoms: _488  and  _489
REMARK  205  A    between atoms: _492  and  _494
REMARK  206  A    between atoms: _494  and  _495
REMARK  207  A    between atoms: _497  and  _499
REMARK  208  A    between atoms: _499  and  _500
REMARK  209  A    between atoms: _499  and  _502
REMARK  210  A    between atoms: _502  and  _503
REMARK  211  A    between atoms: _506  and  _508
REMARK  212  A    between atoms: _508  and  _509
REMARK  213  A    between atoms: _508  and  _511
REMARK  214  A    between atoms: _511  and  _512
REMARK  215  A    between atoms: _515  and  _517
REMARK  216  A    between atoms: _517  and  _518
REMARK  217  A    between atoms: _517  and  _520
REMARK  218  A    between atoms: _520  and  _521
REMARK  219  A    between atoms: _524  and  _526
REMARK  220  A    between atoms: _526  and  _527
REMARK  221  A    between atoms: _526  and  _529
REMARK  222  A    between atoms: _529  and  _530
REMARK  223  A    between atoms: _533  and  _535
REMARK  224  A    between atoms: _535  and  _536
REMARK  225  A    between atoms: _535  and  _538
REMARK  226  A    between atoms: _538  and  _539
REMARK  227  A    between atoms: _544  and  _545
REMARK  228  A    between atoms: _547  and  _549
REMARK  229  A    between atoms: _549  and  _550
REMARK  230  A    between atoms: _549  and  _552
REMARK  231  A    between atoms: _555  and  _557
REMARK  232  A    between atoms: _557  and  _558
REMARK  233  A    between atoms: _560  and  _562
REMARK  234  A    between atoms: _562  and  _563
REMARK  235  A    between atoms: _562  and  _565
REMARK  236  A    between atoms: _565  and  _566
REMARK  237  A    between atoms: _572  and  _574
REMARK  238  A    between atoms: _574  and  _575
REMARK  239  A    between atoms: _574  and  _577
REMARK  240  A    between atoms: _577  and  _578
REMARK  241  A    between atoms: _584  and  _586
REMARK  242  A    between atoms: _586  and  _587
REMARK  243  A    between atoms: _589  and  _591
REMARK  244  A    between atoms: _591  and  _592
REMARK  245  A    between atoms: _594  and  _596
REMARK  246  A    between atoms: _596  and  _597
REMARK  247  A    between atoms: _596  and  _599
REMARK  248  A    between atoms: _599  and  _600
REMARK  249  A    between atoms: _600  and  _601
REMARK  250  A    between atoms: _606  and  _608
REMARK  251  A    between atoms: _608  and  _609
REMARK  252  A    between atoms: _608  and  _611
REMARK  253  A    between atoms: _611  and  _612
REMARK  254  A    between atoms: _614  and  _616
REMARK  255  A    between atoms: _616  and  _617
REMARK  256  A    between atoms: _619  and  _621
REMARK  257  A    between atoms: _621  and  _622
REMARK  258  A    between atoms: _621  and  _624
REMARK  259  A    between atoms: _624  and  _625
REMARK  260  A    between atoms: _628  and  _630
REMARK  261  A    between atoms: _630  and  _631
REMARK  262  A    between atoms: _633  and  _635
REMARK  263  A    between atoms: _635  and  _636
REMARK  264  A    between atoms: _635  and  _638
REMARK  265  A    between atoms: _638  and  _639
REMARK  266  A    between atoms: _642  and  _644
REMARK  267  A    between atoms: _644  and  _645
REMARK  268  A    between atoms: _644  and  _647
REMARK  269  A    between atoms: _647  and  _648
REMARK  270  A    between atoms: _653  and  _655
REMARK  271  A    between atoms: _655  and  _656
REMARK  272  A    between atoms: _655  and  _658
REMARK  273  A    between atoms: _658  and  _659
REMARK  274  A    between atoms: _662  and  _664
REMARK  275  A    between atoms: _664  and  _665
REMARK  276  A    between atoms: _664  and  _667
REMARK  277  A    between atoms: _667  and  _668
REMARK  278  A    between atoms: _674  and  _676
REMARK  279  A    between atoms: _676  and  _677
REMARK  280  A    between atoms: _679  and  _681
REMARK  281  A    between atoms: _681  and  _682
REMARK  282  A    between atoms: _681  and  _684
REMARK  283  A    between atoms: _684  and  _685
REMARK                            x       y       z     vdW  Elec       q    Type
REMARK                         _______ _______ _______ _____ _____    ______ ____
ROOT
ATOM      1  CA  SER A   1       7.174  39.144  26.783  0.00  0.00    +0.163 C 
ENDROOT
BRANCH   1   2
ATOM      2  N   SER A   1       8.316  39.715  26.056  0.00  0.00    -0.237 NA
ATOM      3  H   SER A   1       8.340  39.657  25.018  0.00  0.00    +0.142 HD
ENDBRANCH   1   2
BRANCH   1   4
ATOM      4  CB  SER A   1       7.584  37.875  27.516  0.00  0.00    +0.227 C 
ATOM      5  OG  SER A   1       8.655  37.338  27.242  0.00  0.00    -0.287 OA
ENDBRANCH   1   4
BRANCH   1   6
ATOM      6  C   SER A   1       6.012  38.871  25.861  0.00  0.00    +0.162 C 
BRANCH   6   7
ATOM      7  O   SER A   1       6.338  37.891  24.873  0.00  0.00    -0.380 OA
ATOM      8  H   SER A   1       7.099  38.214  24.328  0.00  0.00    +0.211 HD
ENDBRANCH   6   7
ENDBRANCH   1   6
TORSDOF 4
REMARK  Name = ../refined-set-2016/5er2/5er2_pocket.pdb
REMARK  283 active torsions:
REMARK  status: ('A' for Active; 'I' for Inactive)
REMARK    1  A    between atoms: _1  and  _3
REMARK    2  A    between atoms: _3  and  _4
REMARK    3  A    between atoms: _3  and  _6
REMARK    4  A    between atoms: _6  and  _7
REMARK    5  A    between atoms: _10  and  _12
REMARK    6  A    between atoms: _12  and  _13
REMARK    7  A    between atoms: _12  and  _15
REMARK    8  A    between atoms: _15  and  _16
REMARK    9  A    between atoms: _19  and  _21
REMARK   10  A    between atoms: _21  and  _22
REMARK   11  A    between atoms: _21  and  _24
REMARK   12  A    between atoms: _24  and  _25
REMARK   13  A    between atoms: _28  and  _30
REMARK   14  A    between atoms: _30  and  _31
REMARK   15  A    between atoms: _30  and  _33
REMARK   16  A    between atoms: _33  and  _34
REMARK   17  A    between atoms: _37  and  _39
REMARK   18  A    between atoms: _39  and  _40
REMARK   19  A    between atoms: _39  and  _42
REMARK   20  A    between atoms: _42  and  _43
REMARK   21  A    between atoms: _46  and  _48
REMARK   22  A    between atoms: _48  and  _49
REMARK   23  A    between atoms: _52  and  _54
REMARK   24  A    between atoms: _54  and  _55
REMARK   25  A    between atoms: _54  and  _57
REMARK   26  A    between atoms: _57  and  _58
REMARK   27  A    between atoms: _63  and  _64
REMARK   28  A    between atoms: _66  and  _68
REMARK   29  A    between atoms: _68  and  _69
REMARK   30  A    between atoms: _68  and  _71
REMARK   31  A    between atoms: _71  and  _72
REMARK   32  A    between atoms: _75  and  _77
REMARK   33  A    between atoms: _77  and  _78
REMARK   34  A    between atoms: _77  and  _80
REMARK   35  A    between atoms: _80  and  _81
REMARK   36  A    between atoms: _87  and  _89
REMARK   37  A    between atoms: _89  and  _90
REMARK   38  A    between atoms: _89  and  _92
REMARK   39  A    between atoms: _92  and  _93
REMARK   40  A    between atoms: _96  and  _98
REMARK   41  A    between atoms: _98  and  _99
REMARK   42  A    between atoms: _98  and  _101
REMARK   43  A    between atoms: _101  and  _102
REMARK   44  A    between atoms: _105  and  _107
REMARK   45  A    between atoms: _107  and  _108
REMARK   46  A    between atoms: _110  and  _112
REMARK   47  A    between atoms: _112  and  _113
REMARK   48  A    between atoms: _112  and  _115
REMARK   49  A    between atoms: _115  and  _116
REMARK   50  A    between atoms: _118  and  _120
REMARK   51  A    between atoms: _120  and  _121
REMARK   52  A    between atoms: _120  and  _123
REMARK   53  A    between atoms: _123  and  _124
REMARK   54  A    between atoms: _126  and  _128
REMARK   55  A    between atoms: _128  and  _129
REMARK   56  A    between atoms: _128  and  _131
REMARK   57  A    between atoms: _131  and  _132
REMARK   58  A    between atoms: _135  and  _137
REMARK   59  A    between atoms: _137  and  _138
REMARK   60  A    between atoms: _137  and  _140
REMARK   61  A    between atoms: _140  and  _141
REMARK   62  A    between atoms: _151  and  _153
REMARK   63  A    between atoms: _153  and  _154
REMARK   64  A    between atoms: _153  and  _156
REMARK   65  A    between atoms: _156  and  _157
REMARK   66  A    between atoms: _159  and  _161
REMARK   67  A    between atoms: _161  and  _162
REMARK   68  A    between atoms: _161  and  _164
REMARK   69  A    between atoms: _164  and  _165
REMARK   70  A    between atoms: _168  and  _170
REMARK   71  A    between atoms: _170  and  _171
REMARK   72  A    between atoms: _170  and  _173
REMARK   73  A    between atoms: _173  and  _174
REMARK   74  A    between atoms: _176  and  _178
REMARK   75  A    between atoms: _178  and  _179
REMARK   76  A    between atoms: _178  and  _181
REMARK   77  A    between atoms: _181  and  _182
REMARK   78  A    between atoms: _187  and  _188
REMARK   79  A    between atoms: _190  and  _192
REMARK   80  A    between atoms: _192  and  _193
REMARK   81  A    between atoms: _195  and  _197
REMARK   82  A    between atoms: _197  and  _198
REMARK   83  A    between atoms: _197  and  _200
REMARK   84  A    between atoms: _200  and  _201
REMARK   85  A    between atoms: _204  and  _206
REMARK   86  A    between atoms: _206  and  _207
REMARK   87  A    between atoms: _209  and  _211
REMARK   88  A    between atoms: _211  and  _212
REMARK   89  A    between atoms: _211  and  _214
REMARK   90  A    between atoms: _214  and  _215
REMARK   91  A    between atoms: _217  and  _219
REMARK   92  A    between atoms: _219  and  _220
REMARK   93  A    between atoms: _219  and  _222
REMARK   94  A    between atoms: _222  and  _223
REMARK   95  A    between atoms: _225  and  _227
REMARK   96  A    between atoms: _227  and  _228
REMARK   97  A    between atoms: _227  and  _230
REMARK   98  A    between atoms: _230  and  _231
REMARK   99  A    between atoms: _233  and  _235
REMARK  100  A    between atoms: _235  and  _236
REMARK  101  A    between atoms: _235  and  _238
REMARK  102  A    between atoms: _238  and  _239
REMARK  103  A    between atoms: _241  and  _243
REMARK  104  A    between atoms: _243  and  _244
REMARK  105  A    between atoms: _243  and  _246
REMARK  106  A    between atoms: _246  and  _247
REMARK  107  A    between atoms: _253  and  _255
REMARK  108  A    between atoms: _255  and  _256
REMARK  109  A    between atoms: _255  and  _258
REMARK  110  A    between atoms: _258  and  _259
REMARK  111  A    between atoms: _259  and  _260
REMARK  112  A    between atoms: _263  and  _265
REMARK  113  A    between atoms: _265  and  _266
REMARK  114  A    between atoms: _265  and  _268
REMARK  115  A    between atoms: _268  and  _269
REMARK  116  A    between atoms: _272  and  _274
REMARK  117  A    between atoms: _274  and  _275
REMARK  118  A    between atoms: _274  and  _277
REMARK  119  A    between atoms: _277  and  _278
REMARK  120  A    between atoms: _280  and  _282
REMARK  121  A    between atoms: _282  and  _283
REMARK  122  A    between atoms: _282  and  _285
REMARK  123  A    between atoms: _285  and  _286
REMARK  124  A    between atoms: _289  and  _291
REMARK  125  A    between atoms: _291  and  _292
REMARK  126  A    between atoms: _291  and  _294
REMARK  127  A    between atoms: _294  and  _295
REMARK  128  A    between atoms: _298  and  _300
REMARK  129  A    between atoms: _300  and  _301
REMARK  130  A    between atoms: _303  and  _305
REMARK  131  A    between atoms: _305  and  _306
REMARK  132  A    between atoms: _305  and  _308
REMARK  133  A    between atoms: _308  and  _309
REMARK  134  A    between atoms: _312  and  _314
REMARK  135  A    between atoms: _314  and  _315
REMARK  136  A    between atoms: _314  and  _317
REMARK  137  A    between atoms: _317  and  _318
REMARK  138  A    between atoms: _321  and  _323
REMARK  139  A    between atoms: _323  and  _324
REMARK  140  A    between atoms: _323  and  _326
REMARK  141  A    between atoms: _326  and  _327
REMARK  142  A    between atoms: _330  and  _332
REMARK  143  A    between atoms: _332  and  _333
REMARK  144  A    between atoms: _336  and  _338
REMARK  145  A    between atoms: _338  and  _339
REMARK  146  A    between atoms: _338  and  _341
REMARK  147  A    between atoms: _341  and  _342
REMARK  148  A    between atoms: _348  and  _350
REMARK  149  A    between atoms: _350  and  _351
REMARK  150  A    between atoms: _350  and  _353
REMARK  151  A    between atoms: _353  and  _354
REMARK  152  A    between atoms: _356  and  _358
REMARK  153  A    between atoms: _358  and  _359
REMARK  154  A    between atoms: _358  and  _361
REMARK  155  A    between atoms: _361  and  _362
REMARK  156  A    between atoms: _365  and  _367
REMARK  157  A    between atoms: _367  and  _368
REMARK  158  A    between atoms: _367  and  _370
REMARK  159  A    between atoms: _370  and  _371
REMARK  160  A    between atoms: _374  and  _376
REMARK  161  A    between atoms: _376  and  _377
REMARK  162  A    between atoms: _376  and  _379
REMARK  163  A    between atoms: _379  and  _380
REMARK  164  A    between atoms: _385  and  _387
REMARK  165  A    between atoms: _387  and  _388
REMARK  166  A    between atoms: _387  and  _390
REMARK  167  A    between atoms: _390  and  _391
REMARK  168  A    between atoms: _394  and  _396
REMARK  169  A    between atoms: _396  and  _397
REMARK  170  A    between atoms: _396  and  _399
REMARK  171  A    between atoms: _402  and  _404
REMARK  172  A    between atoms: _404  and  _405
REMARK  173  A    between atoms: _404  and  _407
REMARK  174  A    between atoms: _407  and  _408
REMARK  175  A    between atoms: _408  and  _409
REMARK  176  A    between atoms: _414  and  _416
REMARK  177  A    between atoms: _416  and  _417
REMARK  178  A    between atoms: _416  and  _419
REMARK  179  A    between atoms: _419  and  _420
REMARK  180  A    between atoms: _420  and  _421
REMARK  181  A    between atoms: _426  and  _428
REMARK  182  A    between atoms: _428  and  _429
REMARK  183  A    between atoms: _428  and  _431
REMARK  184  A    between atoms: _431  and  _432
REMARK  185  A    between atoms: _438  and  _440
REMARK  186  A    between atoms: _440  and  _441
REMARK  187  A    between atoms: _440  and  _443
REMARK  188  A    between atoms: _443  and  _444
REMARK  189  A    between atoms: _454  and  _456
REMARK  190  A    between atoms: _456  and  _457
REMARK  191  A    between atoms: _459  and  _461
REMARK  192  A    between atoms: _461  and  _462
REMARK  193  A    between atoms: _461  and  _464
REMARK  194  A    between atoms: _464  and  _465
REMARK  195  A    between atoms: _468  and  _470
REMARK  196  A    between atoms: _470  and  _471
REMARK  197  A    between atoms: _474  and  _476
REMARK  198  A    between atoms: _476  and  _477
REMARK  199  A    between atoms: _476  and  _479
REMARK  200  A    between atoms: _479  and  _480
REMARK  201  A    between atoms: _483  and  _485
REMARK  202  A    between atoms: _485  and  _486
REMARK  203  A    between atoms: _485  and  _488
REMARK  204  A    between atoms: _488  and  _489
REMARK  205  A    between atoms: _492  and  _494
REMARK  206  A    between atoms: _494  and  _495
REMARK  207  A    between atoms: _497  and  _499
REMARK  208  A    between atoms: _499  and  _500
REMARK  209  A    between atoms: _499  and  _502
REMARK  210  A    between atoms: _502  and  _503
REMARK  211  A    between atoms: _506  and  _508
REMARK  212  A    between atoms: _508  and  _509
REMARK  213  A    between atoms: _508  and  _511
REMARK  214  A    between atoms: _511  and  _512
REMARK  215  A    between atoms: _515  and  _517
REMARK  216  A    between atoms: _517  and  _518
REMARK  217  A    between atoms: _517  and  _520
REMARK  218  A    between atoms: _520  and  _521
REMARK  219  A    between atoms: _524  and  _526
REMARK  220  A    between atoms: _526  and  _527
REMARK  221  A    between atoms: _526  and  _529
REMARK  222  A    between atoms: _529  and  _530
REMARK  223  A    between atoms: _533  and  _535
REMARK  224  A    between atoms: _535  and  _536
REMARK  225  A    between atoms: _535  and  _538
REMARK  226  A    between atoms: _538  and  _539
REMARK  227  A    between atoms: _544  and  _545
REMARK  228  A    between atoms: _547  and  _549
REMARK  229  A    between atoms: _549  and  _550
REMARK  230  A    between atoms: _549  and  _552
REMARK  231  A    between atoms: _555  and  _557
REMARK  232  A    between atoms: _557  and  _558
REMARK  233  A    between atoms: _560  and  _562
REMARK  234  A    between atoms: _562  and  _563
REMARK  235  A    between atoms: _562  and  _565
REMARK  236  A    between atoms: _565  and  _566
REMARK  237  A    between atoms: _572  and  _574
REMARK  238  A    between atoms: _574  and  _575
REMARK  239  A    between atoms: _574  and  _577
REMARK  240  A    between atoms: _577  and  _578
REMARK  241  A    between atoms: _584  and  _586
REMARK  242  A    between atoms: _586  and  _587
REMARK  243  A    between atoms: _589  and  _591
REMARK  244  A    between atoms: _591  and  _592
REMARK  245  A    between atoms: _594  and  _596
REMARK  246  A    between atoms: _596  and  _597
REMARK  247  A    between atoms: _596  and  _599
REMARK  248  A    between atoms: _599  and  _600
REMARK  249  A    between atoms: _600  and  _601
REMARK  250  A    between atoms: _606  and  _608
REMARK  251  A    between atoms: _608  and  _609
REMARK  252  A    between atoms: _608  and  _611
REMARK  253  A    between atoms: _611  and  _612
REMARK  254  A    between atoms: _614  and  _616
REMARK  255  A    between atoms: _616  and  _617
REMARK  256  A    between atoms: _619  and  _621
REMARK  257  A    between atoms: _621  and  _622
REMARK  258  A    between atoms: _621  and  _624
REMARK  259  A    between atoms: _624  and  _625
REMARK  260  A    between atoms: _628  and  _630
REMARK  261  A    between atoms: _630  and  _631
REMARK  262  A    between atoms: _633  and  _635
REMARK  263  A    between atoms: _635  and  _636
REMARK  264  A    between atoms: _635  and  _638
REMARK  265  A    between atoms: _638  and  _639
REMARK  266  A    between atoms: _642  and  _644
REMARK  267  A    between atoms: _644  and  _645
REMARK  268  A    between atoms: _644  and  _647
REMARK  269  A    between atoms: _647  and  _648
REMARK  270  A    between atoms: _653  and  _655
REMARK  271  A    between atoms: _655  and  _656
REMARK  272  A    between atoms: _655  and  _658
REMARK  273  A    between atoms: _658  and  _659
REMARK  274  A    between atoms: _662  and  _664
REMARK  275  A    between atoms: _664  and  _665
REMARK  276  A    between atoms: _664  and  _667
REMARK  277  A    between atoms: _667  and  _668
REMARK  278  A    between atoms: _674  and  _676
REMARK  279  A    between atoms: _676  and  _677
REMARK  280  A    between atoms: _679  and  _681
REMARK  281  A    between atoms: _681  and  _682
REMARK  282  A    between atoms: _681  and  _684
REMARK  283  A    between atoms: _684  and  _685
REMARK                            x       y       z     vdW  Elec       q    Type
REMARK                         _______ _______ _______ _____ _____    ______ ____
ROOT
ATOM      1  C   SER A   1       8.191  33.586  26.191  0.00  0.00    +0.241 C 
ATOM      2  O   SER A   1       8.812  32.523  26.210  0.00  0.00    -0.274 OA
ATOM      3  N   PHE A   2       8.798  34.686  25.771  0.00  0.00    -0.298 N 
ATOM      4  H   PHE A   2       8.338  35.619  25.790  0.00  0.00    +0.150 HD
ENDROOT
BRANCH   1   5
ATOM      5  CA  SER A   1       6.748  33.668  26.638  0.00  0.00    +0.174 C 
BRANCH   5   6
ATOM      6  N   SER A   1       6.528  34.808  27.535  0.00  0.00    -0.236 NA
ATOM      7  H   SER A   1       5.769  35.477  27.295  0.00  0.00    +0.142 HD
ENDBRANCH   5   6
BRANCH   5   8
ATOM      8  CB  SER A   1       5.820  33.725  25.446  0.00  0.00    +0.163 C 
BRANCH   8   9
ATOM      9  OG  SER A   1       4.479  33.497  25.892  0.00  0.00    -0.380 OA
ATOM     10  H   SER A   1       4.227  34.195  26.547  0.00  0.00    +0.211 HD
ENDBRANCH   8   9
ENDBRANCH   5   8
ENDBRANCH   1   5
BRANCH   3  11
ATOM     11  CA  PHE A   2      10.173  34.493  25.274  0.00  0.00    +0.141 C 
BRANCH  11  12
ATOM     12  C   PHE A   2      11.134  34.312  26.437  0.00  0.00    +0.227 C 
ATOM     13  O   PHE A   2      12.117  33.575  26.366  0.00  0.00    -0.286 OA
ENDBRANCH  11  12
BRANCH  11  14
ATOM     14  CB  PHE A   2      10.603  35.665  24.415  0.00  0.00    +0.054 C 
BRANCH  14  15
ATOM     15  CG  PHE A   2       9.854  35.889  23.107  0.00  0.00    -0.020 A 
ATOM     16  CD2 PHE A   2       8.983  36.962  22.942  0.00  0.00    -0.004 A 
ATOM     17  CE2 PHE A   2       8.324  37.134  21.729  0.00  0.00    -0.000 A 
ATOM     18  CZ  PHE A   2       8.532  36.246  20.679  0.00  0.00    -0.000 A 
ATOM     19  CE1 PHE A   2       9.406  35.178  20.843  0.00  0.00    -0.000 A 
ATOM     20  CD1 PHE A   2      10.064  35.005  22.054  0.00  0.00    -0.004 A 
ENDBRANCH  14  15
ENDBRANCH  11  14
ENDBRANCH   3  11
TORSDOF 8
REMARK  Name = ../refined-set-2016/5er2/5er2_pocket.pdb
REMARK  283 active torsions:
REMARK  status: ('A' for Active; 'I' for Inactive)
REMARK    1  A    between atoms: _1  and  _3
REMARK    2  A    between atoms: _3  and  _4
REMARK    3  A    between atoms: _3  and  _6
REMARK    4  A    between atoms: _6  and  _7
REMARK    5  A    between atoms: _10  and  _12
REMARK    6  A    between atoms: _12  and  _13
REMARK    7  A    between atoms: _12  and  _15
REMARK    8  A    between atoms: _15  and  _16
REMARK    9  A    between atoms: _19  and  _21
REMARK   10  A    between atoms: _21  and  _22
REMARK   11  A    between atoms: _21  and  _24
REMARK   12  A    between atoms: _24  and  _25
REMARK   13  A    between atoms: _28  and  _30
REMARK   14  A    between atoms: _30  and  _31
REMARK   15  A    between atoms: _30  and  _33
REMARK   16  A    between atoms: _33  and  _34
REMARK   17  A    between atoms: _37  and  _39
REMARK   18  A    between atoms: _39  and  _40
REMARK   19  A    between atoms: _39  and  _42
REMARK   20  A    between atoms: _42  and  _43
REMARK   21  A    between atoms: _46  and  _48
REMARK   22  A    between atoms: _48  and  _49
REMARK   23  A    between atoms: _52  and  _54
REMARK   24  A    between atoms: _54  and  _55
REMARK   25  A    between atoms: _54  and  _57
REMARK   26  A    between atoms: _57  and  _58
REMARK   27  A    between atoms: _63  and  _64
REMARK   28  A    between atoms: _66  and  _68
REMARK   29  A    between atoms: _68  and  _69
REMARK   30  A    between atoms: _68  and  _71
REMARK   31  A    between atoms: _71  and  _72
REMARK   32  A    between atoms: _75  and  _77
REMARK   33  A    between atoms: _77  and  _78
REMARK   34  A    between atoms: _77  and  _80
REMARK   35  A    between atoms: _80  and  _81
REMARK   36  A    between atoms: _87  and  _89
REMARK   37  A    between atoms: _89  and  _90
REMARK   38  A    between atoms: _89  and  _92
REMARK   39  A    between atoms: _92  and  _93
REMARK   40  A    between atoms: _96  and  _98
REMARK   41  A    between atoms: _98  and  _99
REMARK   42  A    between atoms: _98  and  _101
REMARK   43  A    between atoms: _101  and  _102
REMARK   44  A    between atoms: _105  and  _107
REMARK   45  A    between atoms: _107  and  _108
REMARK   46  A    between atoms: _110  and  _112
REMARK   47  A    between atoms: _112  and  _113
REMARK   48  A    between atoms: _112  and  _115
REMARK   49  A    between atoms: _115  and  _116
REMARK   50  A    between atoms: _118  and  _120
REMARK   51  A    between atoms: _120  and  _121
REMARK   52  A    between atoms: _120  and  _123
REMARK   53  A    between atoms: _123  and  _124
REMARK   54  A    between atoms: _126  and  _128
REMARK   55  A    between atoms: _128  and  _129
REMARK   56  A    between atoms: _128  and  _131
REMARK   57  A    between atoms: _131  and  _132
REMARK   58  A    between atoms: _135  and  _137
REMARK   59  A    between atoms: _137  and  _138
REMARK   60  A    between atoms: _137  and  _140
REMARK   61  A    between atoms: _140  and  _141
REMARK   62  A    between atoms: _151  and  _153
REMARK   63  A    between atoms: _153  and  _154
REMARK   64  A    between atoms: _153  and  _156
REMARK   65  A    between atoms: _156  and  _157
REMARK   66  A    between atoms: _159  and  _161
REMARK   67  A    between atoms: _161  and  _162
REMARK   68  A    between atoms: _161  and  _164
REMARK   69  A    between atoms: _164  and  _165
REMARK   70  A    between atoms: _168  and  _170
REMARK   71  A    between atoms: _170  and  _171
REMARK   72  A    between atoms: _170  and  _173
REMARK   73  A    between atoms: _173  and  _174
REMARK   74  A    between atoms: _176  and  _178
REMARK   75  A    between atoms: _178  and  _179
REMARK   76  A    between atoms: _178  and  _181
REMARK   77  A    between atoms: _181  and  _182
REMARK   78  A    between atoms: _187  and  _188
REMARK   79  A    between atoms: _190  and  _192
REMARK   80  A    between atoms: _192  and  _193
REMARK   81  A    between atoms: _195  and  _197
REMARK   82  A    between atoms: _197  and  _198
REMARK   83  A    between atoms: _197  and  _200
REMARK   84  A    between atoms: _200  and  _201
REMARK   85  A    between atoms: _204  and  _206
REMARK   86  A    between atoms: _206  and  _207
REMARK   87  A    between atoms: _209  and  _211
REMARK   88  A    between atoms: _211  and  _212
REMARK   89  A    between atoms: _211  and  _214
REMARK   90  A    between atoms: _214  and  _215
REMARK   91  A    between atoms: _217  and  _219
REMARK   92  A    between atoms: _219  and  _220
REMARK   93  A    between atoms: _219  and  _222
REMARK   94  A    between atoms: _222  and  _223
REMARK   95  A    between atoms: _225  and  _227
REMARK   96  A    between atoms: _227  and  _228
REMARK   97  A    between atoms: _227  and  _230
REMARK   98  A    between atoms: _230  and  _231
REMARK   99  A    between atoms: _233  and  _235
REMARK  100  A    between atoms: _235  and  _236
REMARK  101  A    between atoms: _235  and  _238
REMARK  102  A    between atoms: _238  and  _239
REMARK  103  A    between atoms: _241  and  _243
REMARK  104  A    between atoms: _243  and  _244
REMARK  105  A    between atoms: _243  and  _246
REMARK  106  A    between atoms: _246  and  _247
REMARK  107  A    between atoms: _253  and  _255
REMARK  108  A    between atoms: _255  and  _256
REMARK  109  A    between atoms: _255  and  _258
REMARK  110  A    between atoms: _258  and  _259
REMARK  111  A    between atoms: _259  and  _260
REMARK  112  A    between atoms: _263  and  _265
REMARK  113  A    between atoms: _265  and  _266
REMARK  114  A    between atoms: _265  and  _268
REMARK  115  A    between atoms: _268  and  _269
REMARK  116  A    between atoms: _272  and  _274
REMARK  117  A    between atoms: _274  and  _275
REMARK  118  A    between atoms: _274  and  _277
REMARK  119  A    between atoms: _277  and  _278
REMARK  120  A    between atoms: _280  and  _282
REMARK  121  A    between atoms: _282  and  _283
REMARK  122  A    between atoms: _282  and  _285
REMARK  123  A    between atoms: _285  and  _286
REMARK  124  A    between atoms: _289  and  _291
REMARK  125  A    between atoms: _291  and  _292
REMARK  126  A    between atoms: _291  and  _294
REMARK  127  A    between atoms: _294  and  _295
REMARK  128  A    between atoms: _298  and  _300
REMARK  129  A    between atoms: _300  and  _301
REMARK  130  A    between atoms: _303  and  _305
REMARK  131  A    between atoms: _305  and  _306
REMARK  132  A    between atoms: _305  and  _308
REMARK  133  A    between atoms: _308  and  _309
REMARK  134  A    between atoms: _312  and  _314
REMARK  135  A    between atoms: _314  and  _315
REMARK  136  A    between atoms: _314  and  _317
REMARK  137  A    between atoms: _317  and  _318
REMARK  138  A    between atoms: _321  and  _323
REMARK  139  A    between atoms: _323  and  _324
REMARK  140  A    between atoms: _323  and  _326
REMARK  141  A    between atoms: _326  and  _327
REMARK  142  A    between atoms: _330  and  _332
REMARK  143  A    between atoms: _332  and  _333
REMARK  144  A    between atoms: _336  and  _338
REMARK  145  A    between atoms: _338  and  _339
REMARK  146  A    between atoms: _338  and  _341
REMARK  147  A    between atoms: _341  and  _342
REMARK  148  A    between atoms: _348  and  _350
REMARK  149  A    between atoms: _350  and  _351
REMARK  150  A    between atoms: _350  and  _353
REMARK  151  A    between atoms: _353  and  _354
REMARK  152  A    between atoms: _356  and  _358
REMARK  153  A    between atoms: _358  and  _359
REMARK  154  A    between atoms: _358  and  _361
REMARK  155  A    between atoms: _361  and  _362
REMARK  156  A    between atoms: _365  and  _367
REMARK  157  A    between atoms: _367  and  _368
REMARK  158  A    between atoms: _367  and  _370
REMARK  159  A    between atoms: _370  and  _371
REMARK  160  A    between atoms: _374  and  _376
REMARK  161  A    between atoms: _376  and  _377
REMARK  162  A    between atoms: _376  and  _379
REMARK  163  A    between atoms: _379  and  _380
REMARK  164  A    between atoms: _385  and  _387
REMARK  165  A    between atoms: _387  and  _388
REMARK  166  A    between atoms: _387  and  _390
REMARK  167  A    between atoms: _390  and  _391
REMARK  168  A    between atoms: _394  and  _396
REMARK  169  A    between atoms: _396  and  _397
REMARK  170  A    between atoms: _396  and  _399
REMARK  171  A    between atoms: _402  and  _404
REMARK  172  A    between atoms: _404  and  _405
REMARK  173  A    between atoms: _404  and  _407
REMARK  174  A    between atoms: _407  and  _408
REMARK  175  A    between atoms: _408  and  _409
REMARK  176  A    between atoms: _414  and  _416
REMARK  177  A    between atoms: _416  and  _417
REMARK  178  A    between atoms: _416  and  _419
REMARK  179  A    between atoms: _419  and  _420
REMARK  180  A    between atoms: _420  and  _421
REMARK  181  A    between atoms: _426  and  _428
REMARK  182  A    between atoms: _428  and  _429
REMARK  183  A    between atoms: _428  and  _431
REMARK  184  A    between atoms: _431  and  _432
REMARK  185  A    between atoms: _438  and  _440
REMARK  186  A    between atoms: _440  and  _441
REMARK  187  A    between atoms: _440  and  _443
REMARK  188  A    between atoms: _443  and  _444
REMARK  189  A    between atoms: _454  and  _456
REMARK  190  A    between atoms: _456  and  _457
REMARK  191  A    between atoms: _459  and  _461
REMARK  192  A    between atoms: _461  and  _462
REMARK  193  A    between atoms: _461  and  _464
REMARK  194  A    between atoms: _464  and  _465
REMARK  195  A    between atoms: _468  and  _470
REMARK  196  A    between atoms: _470  and  _471
REMARK  197  A    between atoms: _474  and  _476
REMARK  198  A    between atoms: _476  and  _477
REMARK  199  A    between atoms: _476  and  _479
REMARK  200  A    between atoms: _479  and  _480
REMARK  201  A    between atoms: _483  and  _485
REMARK  202  A    between atoms: _485  and  _486
REMARK  203  A    between atoms: _485  and  _488
REMARK  204  A    between atoms: _488  and  _489
REMARK  205  A    between atoms: _492  and  _494
REMARK  206  A    between atoms: _494  and  _495
REMARK  207  A    between atoms: _497  and  _499
REMARK  208  A    between atoms: _499  and  _500
REMARK  209  A    between atoms: _499  and  _502
REMARK  210  A    between atoms: _502  and  _503
REMARK  211  A    between atoms: _506  and  _508
REMARK  212  A    between atoms: _508  and  _509
REMARK  213  A    between atoms: _508  and  _511
REMARK  214  A    between atoms: _511  and  _512
REMARK  215  A    between atoms: _515  and  _517
REMARK  216  A    between atoms: _517  and  _518
REMARK  217  A    between atoms: _517  and  _520
REMARK  218  A    between atoms: _520  and  _521
REMARK  219  A    between atoms: _524  and  _526
REMARK  220  A    between atoms: _526  and  _527
REMARK  221  A    between atoms: _526  and  _529
REMARK  222  A    between atoms: _529  and  _530
REMARK  223  A    between atoms: _533  and  _535
REMARK  224  A    between atoms: _535  and  _536
REMARK  225  A    between atoms: _535  and  _538
REMARK  226  A    between atoms: _538  and  _539
REMARK  227  A    between atoms: _544  and  _545
REMARK  228  A    between atoms: _547  and  _549
REMARK  229  A    between atoms: _549  and  _550
REMARK  230  A    between atoms: _549  and  _552
REMARK  231  A    between atoms: _555  and  _557
REMARK  232  A    between atoms: _557  and  _558
REMARK  233  A    between atoms: _560  and  _562
REMARK  234  A    between atoms: _562  and  _563
REMARK  235  A    between atoms: _562  and  _565
REMARK  236  A    between atoms: _565  and  _566
REMARK  237  A    between atoms: _572  and  _574
REMARK  238  A    between atoms: _574  and  _575
REMARK  239  A    between atoms: _574  and  _577
REMARK  240  A    between atoms: _577  and  _578
REMARK  241  A    between atoms: _584  and  _586
REMARK  242  A    between atoms: _586  and  _587
REMARK  243  A    between atoms: _589  and  _591
REMARK  244  A    between atoms: _591  and  _592
REMARK  245  A    between atoms: _594  and  _596
REMARK  246  A    between atoms: _596  and  _597
REMARK  247  A    between atoms: _596  and  _599
REMARK  248  A    between atoms: _599  and  _600
REMARK  249  A    between atoms: _600  and  _601
REMARK  250  A    between atoms: _606  and  _608
REMARK  251  A    between atoms: _608  and  _609
REMARK  252  A    between atoms: _608  and  _611
REMARK  253  A    between atoms: _611  and  _612
REMARK  254  A    between atoms: _614  and  _616
REMARK  255  A    between atoms: _616  and  _617
REMARK  256  A    between atoms: _619  and  _621
REMARK  257  A    between atoms: _621  and  _622
REMARK  258  A    between atoms: _621  and  _624
REMARK  259  A    between atoms: _624  and  _625
REMARK  260  A    between atoms: _628  and  _630
REMARK  261  A    between atoms: _630  and  _631
REMARK  262  A    between atoms: _633  and  _635
REMARK  263  A    between atoms: _635  and  _636
REMARK  264  A    between atoms: _635  and  _638
REMARK  265  A    between atoms: _638  and  _639
REMARK  266  A    between atoms: _642  and  _644
REMARK  267  A    between atoms: _644  and  _645
REMARK  268  A    between atoms: _644  and  _647
REMARK  269  A    between atoms: _647  and  _648
REMARK  270  A    between atoms: _653  and  _655
REMARK  271  A    between atoms: _655  and  _656
REMARK  272  A    between atoms: _655  and  _658
REMARK  273  A    between atoms: _658  and  _659
REMARK  274  A    between atoms: _662  and  _664
REMARK  275  A    between atoms: _664  and  _665
REMARK  276  A    between atoms: _664  and  _667
REMARK  277  A    between atoms: _667  and  _668
REMARK  278  A    between atoms: _674  and  _676
REMARK  279  A    between atoms: _676  and  _677
REMARK  280  A    between atoms: _679  and  _681
REMARK  281  A    between atoms: _681  and  _682
REMARK  282  A    between atoms: _681  and  _684
REMARK  283  A    between atoms: _684  and  _685
REMARK                            x       y       z     vdW  Elec       q    Type
REMARK                         _______ _______ _______ _____ _____    ______ ____
ROOT
ATOM      1  CA  SER A   3      15.517  29.234  27.119  0.00  0.00    +0.178 C 
ENDROOT
BRANCH   1   2
ATOM      2  C   SER A   3      16.258  28.942  25.828  0.00  0.00    +0.243 C 
ATOM      3  O   SER A   3      17.397  29.394  25.685  0.00  0.00    -0.273 OA
ATOM      4  N   THR A   4      15.674  28.230  24.886  0.00  0.00    -0.295 N 
ATOM      5  H   THR A   4      14.653  28.057  24.979  0.00  0.00    +0.150 HD
BRANCH   4   6
ATOM      6  CA  THR A   4      16.354  27.662  23.714  0.00  0.00    +0.176 C 
BRANCH   6   7
ATOM      7  C   THR A   4      16.394  28.669  22.574  0.00  0.00    +0.243 C 
ATOM      8  N   ILE A   5      15.550  29.682  22.655  0.00  0.00    -0.298 N 
ATOM      9  H   ILE A   5      14.971  29.830  23.506  0.00  0.00    +0.150 HD
ATOM     10  O   THR A   4      17.162  28.529  21.624  0.00  0.00    -0.273 OA
BRANCH   8  11
ATOM     11  CA  ILE A   5      15.454  30.597  21.502  0.00  0.00    +0.137 C 
BRANCH  11  12
ATOM     12  CB  ILE A   5      14.004  30.735  21.059  0.00  0.00    +0.026 C 
ATOM     13  CG2 ILE A   5      13.850  31.837  20.023  0.00  0.00    +0.002 C 
BRANCH  12  14
ATOM     14  CG1 ILE A   5      13.470  29.411  20.534  0.00  0.00    +0.002 C 
ATOM     15  CD1 ILE A   5      11.962  29.253  20.505  0.00  0.00    +0.000 C 
ENDBRANCH  12  14
ENDBRANCH  11  12
BRANCH  11  16
ATOM     16  C   ILE A   5      16.032  31.959  21.844  0.00  0.00    +0.227 C 
ATOM     17  O   ILE A   5      15.502  32.613  22.743  0.00  0.00    -0.286 OA
ENDBRANCH  11  16
ENDBRANCH   8  11
ENDBRANCH   6   7
BRANCH   6  18
ATOM     18  CB  THR A   4      15.628  26.406  23.251  0.00  0.00    +0.137 C 
ATOM     19  CG2 THR A   4      16.243  25.199  23.886  0.00  0.00    +0.034 C 
BRANCH  18  20
ATOM     20  OG1 THR A   4      14.249  26.473  23.617  0.00  0.00    -0.382 OA
ATOM     21  HG1 THR A   4      13.787  25.652  23.311  0.00  0.00    +0.210 HD
ENDBRANCH  18  20
ENDBRANCH   6  18
ENDBRANCH   4   6
ENDBRANCH   1   2
BRANCH   1  23
ATOM     22  C   ASP A   2      13.409  30.105  26.227  0.00  0.00    +0.241 C 
ATOM     23  N   SER A   3      14.065  29.197  26.925  0.00  0.00    -0.295 N 
ATOM     24  H   SER A   3      13.527  28.419  27.357  0.00  0.00    +0.150 HD
ATOM     25  O   ASP A   2      13.977  30.991  25.588  0.00  0.00    -0.273 OA
BRANCH  22  26
ATOM     26  CA  ASP A   2      11.892  30.025  26.223  0.00  0.00    +0.160 C 
BRANCH  26  29
ATOM     27  C   GLU A   1      11.003  30.368  28.452  0.00  0.00    +0.238 C 
ATOM     28  O   GLU A   1      11.184  29.172  28.686  0.00  0.00    -0.274 OA
ATOM     29  N   ASP A   2      11.316  30.877  27.275  0.00  0.00    -0.297 N 
ATOM     30  H   ASP A   2      11.154  31.888  27.090  0.00  0.00    +0.150 HD
BRANCH  27  31
ATOM     31  CA  GLU A   1      10.433  31.273  29.523  0.00  0.00    +0.145 C 
BRANCH  31  32
ATOM     32  N   GLU A   1      10.548  32.688  29.145  0.00  0.00    -0.238 NA
ATOM     33  H   GLU A   1       9.701  33.190  28.809  0.00  0.00    +0.142 HD
ENDBRANCH  31  32
BRANCH  31  34
ATOM     34  CB  GLU A   1       8.976  30.923  29.791  0.00  0.00    +0.038 C 
BRANCH  34  35
ATOM     35  CG  GLU A   1       8.463  31.874  30.861  0.00  0.00    +0.116 C 
BRANCH  35  36
ATOM     36  CD  GLU A   1       6.959  32.052  30.781  0.00  0.00    +0.365 C 
ATOM     37  OE2 GLU A   1       6.417  32.830  31.583  0.00  0.00    -0.246 OA
ATOM     38  OE1 GLU A   1       6.283  31.441  29.942  0.00  0.00    -0.246 OA
ENDBRANCH  35  36
ENDBRANCH  34  35
ENDBRANCH  31  34
ENDBRANCH  27  31
ENDBRANCH  26  29
BRANCH  26  39
ATOM     39  CB  ASP A   2      11.366  30.438  24.845  0.00  0.00    +0.143 C 
BRANCH  39  40
ATOM     40  CG  ASP A   2      10.503  29.303  24.283  0.00  0.00    +0.367 C 
ATOM     41  OD2 ASP A   2       9.341  29.194  24.698  0.00  0.00    -0.246 OA
ATOM     42  OD1 ASP A   2      10.998  28.537  23.445  0.00  0.00    -0.246 OA
ENDBRANCH  39  40
ENDBRANCH  26  39
ENDBRANCH  22  26
ENDBRANCH   1  23
BRANCH   1  43
ATOM     43  CB  SER A   3      15.960  28.307  28.220  0.00  0.00    +0.166 C 
BRANCH  43  44
ATOM     44  OG  SER A   3      15.893  26.933  27.834  0.00  0.00    -0.380 OA
ATOM     45  H   SER A   3      14.960  26.703  27.597  0.00  0.00    +0.211 HD
ENDBRANCH  43  44
ENDBRANCH   1  43
TORSDOF 21
REMARK  Name = ../refined-set-2016/5er2/5er2_pocket.pdb
REMARK  283 active torsions:
REMARK  status: ('A' for Active; 'I' for Inactive)
REMARK    1  A    between atoms: _1  and  _3
REMARK    2  A    between atoms: _3  and  _4
REMARK    3  A    between atoms: _3  and  _6
REMARK    4  A    between atoms: _6  and  _7
REMARK    5  A    between atoms: _10  and  _12
REMARK    6  A    between atoms: _12  and  _13
REMARK    7  A    between atoms: _12  and  _15
REMARK    8  A    between atoms: _15  and  _16
REMARK    9  A    between atoms: _19  and  _21
REMARK   10  A    between atoms: _21  and  _22
REMARK   11  A    between atoms: _21  and  _24
REMARK   12  A    between atoms: _24  and  _25
REMARK   13  A    between atoms: _28  and  _30
REMARK   14  A    between atoms: _30  and  _31
REMARK   15  A    between atoms: _30  and  _33
REMARK   16  A    between atoms: _33  and  _34
REMARK   17  A    between atoms: _37  and  _39
REMARK   18  A    between atoms: _39  and  _40
REMARK   19  A    between atoms: _39  and  _42
REMARK   20  A    between atoms: _42  and  _43
REMARK   21  A    between atoms: _46  and  _48
REMARK   22  A    between atoms: _48  and  _49
REMARK   23  A    between atoms: _52  and  _54
REMARK   24  A    between atoms: _54  and  _55
REMARK   25  A    between atoms: _54  and  _57
REMARK   26  A    between atoms: _57  and  _58
REMARK   27  A    between atoms: _63  and  _64
REMARK   28  A    between atoms: _66  and  _68
REMARK   29  A    between atoms: _68  and  _69
REMARK   30  A    between atoms: _68  and  _71
REMARK   31  A    between atoms: _71  and  _72
REMARK   32  A    between atoms: _75  and  _77
REMARK   33  A    between atoms: _77  and  _78
REMARK   34  A    between atoms: _77  and  _80
REMARK   35  A    between atoms: _80  and  _81
REMARK   36  A    between atoms: _87  and  _89
REMARK   37  A    between atoms: _89  and  _90
REMARK   38  A    between atoms: _89  and  _92
REMARK   39  A    between atoms: _92  and  _93
REMARK   40  A    between atoms: _96  and  _98
REMARK   41  A    between atoms: _98  and  _99
REMARK   42  A    between atoms: _98  and  _101
REMARK   43  A    between atoms: _101  and  _102
REMARK   44  A    between atoms: _105  and  _107
REMARK   45  A    between atoms: _107  and  _108
REMARK   46  A    between atoms: _110  and  _112
REMARK   47  A    between atoms: _112  and  _113
REMARK   48  A    between atoms: _112  and  _115
REMARK   49  A    between atoms: _115  and  _116
REMARK   50  A    between atoms: _118  and  _120
REMARK   51  A    between atoms: _120  and  _121
REMARK   52  A    between atoms: _120  and  _123
REMARK   53  A    between atoms: _123  and  _124
REMARK   54  A    between atoms: _126  and  _128
REMARK   55  A    between atoms: _128  and  _129
REMARK   56  A    between atoms: _128  and  _131
REMARK   57  A    between atoms: _131  and  _132
REMARK   58  A    between atoms: _135  and  _137
REMARK   59  A    between atoms: _137  and  _138
REMARK   60  A    between atoms: _137  and  _140
REMARK   61  A    between atoms: _140  and  _141
REMARK   62  A    between atoms: _151  and  _153
REMARK   63  A    between atoms: _153  and  _154
REMARK   64  A    between atoms: _153  and  _156
REMARK   65  A    between atoms: _156  and  _157
REMARK   66  A    between atoms: _159  and  _161
REMARK   67  A    between atoms: _161  and  _162
REMARK   68  A    between atoms: _161  and  _164
REMARK   69  A    between atoms: _164  and  _165
REMARK   70  A    between atoms: _168  and  _170
REMARK   71  A    between atoms: _170  and  _171
REMARK   72  A    between atoms: _170  and  _173
REMARK   73  A    between atoms: _173  and  _174
REMARK   74  A    between atoms: _176  and  _178
REMARK   75  A    between atoms: _178  and  _179
REMARK   76  A    between atoms: _178  and  _181
REMARK   77  A    between atoms: _181  and  _182
REMARK   78  A    between atoms: _187  and  _188
REMARK   79  A    between atoms: _190  and  _192
REMARK   80  A    between atoms: _192  and  _193
REMARK   81  A    between atoms: _195  and  _197
REMARK   82  A    between atoms: _197  and  _198
REMARK   83  A    between atoms: _197  and  _200
REMARK   84  A    between atoms: _200  and  _201
REMARK   85  A    between atoms: _204  and  _206
REMARK   86  A    between atoms: _206  and  _207
REMARK   87  A    between atoms: _209  and  _211
REMARK   88  A    between atoms: _211  and  _212
REMARK   89  A    between atoms: _211  and  _214
REMARK   90  A    between atoms: _214  and  _215
REMARK   91  A    between atoms: _217  and  _219
REMARK   92  A    between atoms: _219  and  _220
REMARK   93  A    between atoms: _219  and  _222
REMARK   94  A    between atoms: _222  and  _223
REMARK   95  A    between atoms: _225  and  _227
REMARK   96  A    between atoms: _227  and  _228
REMARK   97  A    between atoms: _227  and  _230
REMARK   98  A    between atoms: _230  and  _231
REMARK   99  A    between atoms: _233  and  _235
REMARK  100  A    between atoms: _235  and  _236
REMARK  101  A    between atoms: _235  and  _238
REMARK  102  A    between atoms: _238  and  _239
REMARK  103  A    between atoms: _241  and  _243
REMARK  104  A    between atoms: _243  and  _244
REMARK  105  A    between atoms: _243  and  _246
REMARK  106  A    between atoms: _246  and  _247
REMARK  107  A    between atoms: _253  and  _255
REMARK  108  A    between atoms: _255  and  _256
REMARK  109  A    between atoms: _255  and  _258
REMARK  110  A    between atoms: _258  and  _259
REMARK  111  A    between atoms: _259  and  _260
REMARK  112  A    between atoms: _263  and  _265
REMARK  113  A    between atoms: _265  and  _266
REMARK  114  A    between atoms: _265  and  _268
REMARK  115  A    between atoms: _268  and  _269
REMARK  116  A    between atoms: _272  and  _274
REMARK  117  A    between atoms: _274  and  _275
REMARK  118  A    between atoms: _274  and  _277
REMARK  119  A    between atoms: _277  and  _278
REMARK  120  A    between atoms: _280  and  _282
REMARK  121  A    between atoms: _282  and  _283
REMARK  122  A    between atoms: _282  and  _285
REMARK  123  A    between atoms: _285  and  _286
REMARK  124  A    between atoms: _289  and  _291
REMARK  125  A    between atoms: _291  and  _292
REMARK  126  A    between atoms: _291  and  _294
REMARK  127  A    between atoms: _294  and  _295
REMARK  128  A    between atoms: _298  and  _300
REMARK  129  A    between atoms: _300  and  _301
REMARK  130  A    between atoms: _303  and  _305
REMARK  131  A    between atoms: _305  and  _306
REMARK  132  A    between atoms: _305  and  _308
REMARK  133  A    between atoms: _308  and  _309
REMARK  134  A    between atoms: _312  and  _314
REMARK  135  A    between atoms: _314  and  _315
REMARK  136  A    between atoms: _314  and  _317
REMARK  137  A    between atoms: _317  and  _318
REMARK  138  A    between atoms: _321  and  _323
REMARK  139  A    between atoms: _323  and  _324
REMARK  140  A    between atoms: _323  and  _326
REMARK  141  A    between atoms: _326  and  _327
REMARK  142  A    between atoms: _330  and  _332
REMARK  143  A    between atoms: _332  and  _333
REMARK  144  A    between atoms: _336  and  _338
REMARK  145  A    between atoms: _338  and  _339
REMARK  146  A    between atoms: _338  and  _341
REMARK  147  A    between atoms: _341  and  _342
REMARK  148  A    between atoms: _348  and  _350
REMARK  149  A    between atoms: _350  and  _351
REMARK  150  A    between atoms: _350  and  _353
REMARK  151  A    between atoms: _353  and  _354
REMARK  152  A    between atoms: _356  and  _358
REMARK  153  A    between atoms: _358  and  _359
REMARK  154  A    between atoms: _358  and  _361
REMARK  155  A    between atoms: _361  and  _362
REMARK  156  A    between atoms: _365  and  _367
REMARK  157  A    between atoms: _367  and  _368
REMARK  158  A    between atoms: _367  and  _370
REMARK  159  A    between atoms: _370  and  _371
REMARK  160  A    between atoms: _374  and  _376
REMARK  161  A    between atoms: _376  and  _377
REMARK  162  A    between atoms: _376  and  _379
REMARK  163  A    between atoms: _379  and  _380
REMARK  164  A    between atoms: _385  and  _387
REMARK  165  A    between atoms: _387  and  _388
REMARK  166  A    between atoms: _387  and  _390
REMARK  167  A    between atoms: _390  and  _391
REMARK  168  A    between atoms: _394  and  _396
REMARK  169  A    between atoms: _396  and  _397
REMARK  170  A    between atoms: _396  and  _399
REMARK  171  A    between atoms: _402  and  _404
REMARK  172  A    between atoms: _404  and  _405
REMARK  173  A    between atoms: _404  and  _407
REMARK  174  A    between atoms: _407  and  _408
REMARK  175  A    between atoms: _408  and  _409
REMARK  176  A    between atoms: _414  and  _416
REMARK  177  A    between atoms: _416  and  _417
REMARK  178  A    between atoms: _416  and  _419
REMARK  179  A    between atoms: _419  and  _420
REMARK  180  A    between atoms: _420  and  _421
REMARK  181  A    between atoms: _426  and  _428
REMARK  182  A    between atoms: _428  and  _429
REMARK  183  A    between atoms: _428  and  _431
REMARK  184  A    between atoms: _431  and  _432
REMARK  185  A    between atoms: _438  and  _440
REMARK  186  A    between atoms: _440  and  _441
REMARK  187  A    between atoms: _440  and  _443
REMARK  188  A    between atoms: _443  and  _444
REMARK  189  A    between atoms: _454  and  _456
REMARK  190  A    between atoms: _456  and  _457
REMARK  191  A    between atoms: _459  and  _461
REMARK  192  A    between atoms: _461  and  _462
REMARK  193  A    between atoms: _461  and  _464
REMARK  194  A    between atoms: _464  and  _465
REMARK  195  A    between atoms: _468  and  _470
REMARK  196  A    between atoms: _470  and  _471
REMARK  197  A    between atoms: _474  and  _476
REMARK  198  A    between atoms: _476  and  _477
REMARK  199  A    between atoms: _476  and  _479
REMARK  200  A    between atoms: _479  and  _480
REMARK  201  A    between atoms: _483  and  _485
REMARK  202  A    between atoms: _485  and  _486
REMARK  203  A    between atoms: _485  and  _488
REMARK  204  A    between atoms: _488  and  _489
REMARK  205  A    between atoms: _492  and  _494
REMARK  206  A    between atoms: _494  and  _495
REMARK  207  A    between atoms: _497  and  _499
REMARK  208  A    between atoms: _499  and  _500
REMARK  209  A    between atoms: _499  and  _502
REMARK  210  A    between atoms: _502  and  _503
REMARK  211  A    between atoms: _506  and  _508
REMARK  212  A    between atoms: _508  and  _509
REMARK  213  A    between atoms: _508  and  _511
REMARK  214  A    between atoms: _511  and  _512
REMARK  215  A    between atoms: _515  and  _517
REMARK  216  A    between atoms: _517  and  _518
REMARK  217  A    between atoms: _517  and  _520
REMARK  218  A    between atoms: _520  and  _521
REMARK  219  A    between atoms: _524  and  _526
REMARK  220  A    between atoms: _526  and  _527
REMARK  221  A    between atoms: _526  and  _529
REMARK  222  A    between atoms: _529  and  _530
REMARK  223  A    between atoms: _533  and  _535
REMARK  224  A    between atoms: _535  and  _536
REMARK  225  A    between atoms: _535  and  _538
REMARK  226  A    between atoms: _538  and  _539
REMARK  227  A    between atoms: _544  and  _545
REMARK  228  A    between atoms: _547  and  _549
REMARK  229  A    between atoms: _549  and  _550
REMARK  230  A    between atoms: _549  and  _552
REMARK  231  A    between atoms: _555  and  _557
REMARK  232  A    between atoms: _557  and  _558
REMARK  233  A    between atoms: _560  and  _562
REMARK  234  A    between atoms: _562  and  _563
REMARK  235  A    between atoms: _562  and  _565
REMARK  236  A    between atoms: _565  and  _566
REMARK  237  A    between atoms: _572  and  _574
REMARK  238  A    between atoms: _574  and  _575
REMARK  239  A    between atoms: _574  and  _577
REMARK  240  A    between atoms: _577  and  _578
REMARK  241  A    between atoms: _584  and  _586
REMARK  242  A    between atoms: _586  and  _587
REMARK  243  A    between atoms: _589  and  _591
REMARK  244  A    between atoms: _591  and  _592
REMARK  245  A    between atoms: _594  and  _596
REMARK  246  A    between atoms: _596  and  _597
REMARK  247  A    between atoms: _596  and  _599
REMARK  248  A    between atoms: _599  and  _600
REMARK  249  A    between atoms: _600  and  _601
REMARK  250  A    between atoms: _606  and  _608
REMARK  251  A    between atoms: _608  and  _609
REMARK  252  A    between atoms: _608  and  _611
REMARK  253  A    between atoms: _611  and  _612
REMARK  254  A    between atoms: _614  and  _616
REMARK  255  A    between atoms: _616  and  _617
REMARK  256  A    between atoms: _619  and  _621
REMARK  257  A    between atoms: _621  and  _622
REMARK  258  A    between atoms: _621  and  _624
REMARK  259  A    between atoms: _624  and  _625
REMARK  260  A    between atoms: _628  and  _630
REMARK  261  A    between atoms: _630  and  _631
REMARK  262  A    between atoms: _633  and  _635
REMARK  263  A    between atoms: _635  and  _636
REMARK  264  A    between atoms: _635  and  _638
REMARK  265  A    between atoms: _638  and  _639
REMARK  266  A    between atoms: _642  and  _644
REMARK  267  A    between atoms: _644  and  _645
REMARK  268  A    between atoms: _644  and  _647
REMARK  269  A    between atoms: _647  and  _648
REMARK  270  A    between atoms: _653  and  _655
REMARK  271  A    between atoms: _655  and  _656
REMARK  272  A    between atoms: _655  and  _658
REMARK  273  A    between atoms: _658  and  _659
REMARK  274  A    between atoms: _662  and  _664
REMARK  275  A    between atoms: _664  and  _665
REMARK  276  A    between atoms: _664  and  _667
REMARK  277  A    between atoms: _667  and  _668
REMARK  278  A    between atoms: _674  and  _676
REMARK  279  A    between atoms: _676  and  _677
REMARK  280  A    between atoms: _679  and  _681
REMARK  281  A    between atoms: _681  and  _682
REMARK  282  A    between atoms: _681  and  _684
REMARK  283  A    between atoms: _684  and  _685
REMARK                            x       y       z     vdW  Elec       q    Type
REMARK                         _______ _______ _______ _____ _____    ______ ____
ROOT
ATOM      1  CA  LEU A   2      14.021  35.429  15.596  0.00  0.00    +0.149 C 
ENDROOT
BRANCH   1   4
ATOM      2  C   GLY A   1      15.139  34.990  17.745  0.00  0.00    +0.240 C 
ATOM      3  O   GLY A   1      15.199  33.768  17.606  0.00  0.00    -0.274 OA
ATOM      4  N   LEU A   2      14.684  35.832  16.841  0.00  0.00    -0.297 N 
ATOM      5  H   LEU A   2      14.802  36.849  17.021  0.00  0.00    +0.150 HD
BRANCH   2   6
ATOM      6  CA  GLY A   1      15.630  35.607  19.048  0.00  0.00    +0.169 C 
BRANCH   6   7
ATOM      7  N   GLY A   1      16.218  34.553  19.890  0.00  0.00    -0.236 NA
ATOM      8  H   GLY A   1      15.862  33.580  19.805  0.00  0.00    +0.142 HD
ENDBRANCH   6   7
ENDBRANCH   2   6
ENDBRANCH   1   4
BRANCH   1   9
ATOM      9  C   LEU A   2      14.781  35.954  14.377  0.00  0.00    +0.241 C 
ATOM     10  O   LEU A   2      15.358  37.039  14.403  0.00  0.00    -0.273 OA
ATOM     11  N   LEU A   3      14.756  35.167  13.322  0.00  0.00    -0.298 N 
ATOM     12  H   LEU A   3      14.448  34.178  13.414  0.00  0.00    +0.150 HD
BRANCH  11  13
ATOM     13  CA  LEU A   3      15.169  35.698  12.007  0.00  0.00    +0.137 C 
BRANCH  13  14
ATOM     14  C   LEU A   3      13.990  35.645  11.030  0.00  0.00    +0.227 C 
ATOM     15  O   LEU A   3      13.534  34.547  10.718  0.00  0.00    -0.286 OA
ENDBRANCH  13  14
BRANCH  13  16
ATOM     16  CB  LEU A   3      16.324  34.881  11.455  0.00  0.00    +0.028 C 
BRANCH  16  17
ATOM     17  CG  LEU A   3      17.019  35.543  10.279  0.00  0.00    +0.002 C 
ATOM     18  CD2 LEU A   3      18.522  35.319  10.360  0.00  0.00    +0.000 C 
ATOM     19  CD1 LEU A   3      16.464  35.119   8.929  0.00  0.00    +0.000 C 
ENDBRANCH  16  17
ENDBRANCH  13  16
ENDBRANCH  11  13
ENDBRANCH   1   9
BRANCH   1  20
ATOM     20  CB  LEU A   2      12.592  35.954  15.551  0.00  0.00    +0.029 C 
BRANCH  20  21
ATOM     21  CG  LEU A   2      11.628  34.821  15.877  0.00  0.00    +0.002 C 
ATOM     22  CD2 LEU A   2      11.591  34.603  17.381  0.00  0.00    +0.000 C 
ATOM     23  CD1 LEU A   2      10.253  35.014  15.264  0.00  0.00    +0.000 C 
ENDBRANCH  20  21
ENDBRANCH   1  20
TORSDOF 10
REMARK  Name = ../refined-set-2016/5er2/5er2_pocket.pdb
REMARK  283 active torsions:
REMARK  status: ('A' for Active; 'I' for Inactive)
REMARK    1  A    between atoms: _1  and  _3
REMARK    2  A    between atoms: _3  and  _4
REMARK    3  A    between atoms: _3  and  _6
REMARK    4  A    between atoms: _6  and  _7
REMARK    5  A    between atoms: _10  and  _12
REMARK    6  A    between atoms: _12  and  _13
REMARK    7  A    between atoms: _12  and  _15
REMARK    8  A    between atoms: _15  and  _16
REMARK    9  A    between atoms: _19  and  _21
REMARK   10  A    between atoms: _21  and  _22
REMARK   11  A    between atoms: _21  and  _24
REMARK   12  A    between atoms: _24  and  _25
REMARK   13  A    between atoms: _28  and  _30
REMARK   14  A    between atoms: _30  and  _31
REMARK   15  A    between atoms: _30  and  _33
REMARK   16  A    between atoms: _33  and  _34
REMARK   17  A    between atoms: _37  and  _39
REMARK   18  A    between atoms: _39  and  _40
REMARK   19  A    between atoms: _39  and  _42
REMARK   20  A    between atoms: _42  and  _43
REMARK   21  A    between atoms: _46  and  _48
REMARK   22  A    between atoms: _48  and  _49
REMARK   23  A    between atoms: _52  and  _54
REMARK   24  A    between atoms: _54  and  _55
REMARK   25  A    between atoms: _54  and  _57
REMARK   26  A    between atoms: _57  and  _58
REMARK   27  A    between atoms: _63  and  _64
REMARK   28  A    between atoms: _66  and  _68
REMARK   29  A    between atoms: _68  and  _69
REMARK   30  A    between atoms: _68  and  _71
REMARK   31  A    between atoms: _71  and  _72
REMARK   32  A    between atoms: _75  and  _77
REMARK   33  A    between atoms: _77  and  _78
REMARK   34  A    between atoms: _77  and  _80
REMARK   35  A    between atoms: _80  and  _81
REMARK   36  A    between atoms: _87  and  _89
REMARK   37  A    between atoms: _89  and  _90
REMARK   38  A    between atoms: _89  and  _92
REMARK   39  A    between atoms: _92  and  _93
REMARK   40  A    between atoms: _96  and  _98
REMARK   41  A    between atoms: _98  and  _99
REMARK   42  A    between atoms: _98  and  _101
REMARK   43  A    between atoms: _101  and  _102
REMARK   44  A    between atoms: _105  and  _107
REMARK   45  A    between atoms: _107  and  _108
REMARK   46  A    between atoms: _110  and  _112
REMARK   47  A    between atoms: _112  and  _113
REMARK   48  A    between atoms: _112  and  _115
REMARK   49  A    between atoms: _115  and  _116
REMARK   50  A    between atoms: _118  and  _120
REMARK   51  A    between atoms: _120  and  _121
REMARK   52  A    between atoms: _120  and  _123
REMARK   53  A    between atoms: _123  and  _124
REMARK   54  A    between atoms: _126  and  _128
REMARK   55  A    between atoms: _128  and  _129
REMARK   56  A    between atoms: _128  and  _131
REMARK   57  A    between atoms: _131  and  _132
REMARK   58  A    between atoms: _135  and  _137
REMARK   59  A    between atoms: _137  and  _138
REMARK   60  A    between atoms: _137  and  _140
REMARK   61  A    between atoms: _140  and  _141
REMARK   62  A    between atoms: _151  and  _153
REMARK   63  A    between atoms: _153  and  _154
REMARK   64  A    between atoms: _153  and  _156
REMARK   65  A    between atoms: _156  and  _157
REMARK   66  A    between atoms: _159  and  _161
REMARK   67  A    between atoms: _161  and  _162
REMARK   68  A    between atoms: _161  and  _164
REMARK   69  A    between atoms: _164  and  _165
REMARK   70  A    between atoms: _168  and  _170
REMARK   71  A    between atoms: _170  and  _171
REMARK   72  A    between atoms: _170  and  _173
REMARK   73  A    between atoms: _173  and  _174
REMARK   74  A    between atoms: _176  and  _178
REMARK   75  A    between atoms: _178  and  _179
REMARK   76  A    between atoms: _178  and  _181
REMARK   77  A    between atoms: _181  and  _182
REMARK   78  A    between atoms: _187  and  _188
REMARK   79  A    between atoms: _190  and  _192
REMARK   80  A    between atoms: _192  and  _193
REMARK   81  A    between atoms: _195  and  _197
REMARK   82  A    between atoms: _197  and  _198
REMARK   83  A    between atoms: _197  and  _200
REMARK   84  A    between atoms: _200  and  _201
REMARK   85  A    between atoms: _204  and  _206
REMARK   86  A    between atoms: _206  and  _207
REMARK   87  A    between atoms: _209  and  _211
REMARK   88  A    between atoms: _211  and  _212
REMARK   89  A    between atoms: _211  and  _214
REMARK   90  A    between atoms: _214  and  _215
REMARK   91  A    between atoms: _217  and  _219
REMARK   92  A    between atoms: _219  and  _220
REMARK   93  A    between atoms: _219  and  _222
REMARK   94  A    between atoms: _222  and  _223
REMARK   95  A    between atoms: _225  and  _227
REMARK   96  A    between atoms: _227  and  _228
REMARK   97  A    between atoms: _227  and  _230
REMARK   98  A    between atoms: _230  and  _231
REMARK   99  A    between atoms: _233  and  _235
REMARK  100  A    between atoms: _235  and  _236
REMARK  101  A    between atoms: _235  and  _238
REMARK  102  A    between atoms: _238  and  _239
REMARK  103  A    between atoms: _241  and  _243
REMARK  104  A    between atoms: _243  and  _244
REMARK  105  A    between atoms: _243  and  _246
REMARK  106  A    between atoms: _246  and  _247
REMARK  107  A    between atoms: _253  and  _255
REMARK  108  A    between atoms: _255  and  _256
REMARK  109  A    between atoms: _255  and  _258
REMARK  110  A    between atoms: _258  and  _259
REMARK  111  A    between atoms: _259  and  _260
REMARK  112  A    between atoms: _263  and  _265
REMARK  113  A    between atoms: _265  and  _266
REMARK  114  A    between atoms: _265  and  _268
REMARK  115  A    between atoms: _268  and  _269
REMARK  116  A    between atoms: _272  and  _274
REMARK  117  A    between atoms: _274  and  _275
REMARK  118  A    between atoms: _274  and  _277
REMARK  119  A    between atoms: _277  and  _278
REMARK  120  A    between atoms: _280  and  _282
REMARK  121  A    between atoms: _282  and  _283
REMARK  122  A    between atoms: _282  and  _285
REMARK  123  A    between atoms: _285  and  _286
REMARK  124  A    between atoms: _289  and  _291
REMARK  125  A    between atoms: _291  and  _292
REMARK  126  A    between atoms: _291  and  _294
REMARK  127  A    between atoms: _294  and  _295
REMARK  128  A    between atoms: _298  and  _300
REMARK  129  A    between atoms: _300  and  _301
REMARK  130  A    between atoms: _303  and  _305
REMARK  131  A    between atoms: _305  and  _306
REMARK  132  A    between atoms: _305  and  _308
REMARK  133  A    between atoms: _308  and  _309
REMARK  134  A    between atoms: _312  and  _314
REMARK  135  A    between atoms: _314  and  _315
REMARK  136  A    between atoms: _314  and  _317
REMARK  137  A    between atoms: _317  and  _318
REMARK  138  A    between atoms: _321  and  _323
REMARK  139  A    between atoms: _323  and  _324
REMARK  140  A    between atoms: _323  and  _326
REMARK  141  A    between atoms: _326  and  _327
REMARK  142  A    between atoms: _330  and  _332
REMARK  143  A    between atoms: _332  and  _333
REMARK  144  A    between atoms: _336  and  _338
REMARK  145  A    between atoms: _338  and  _339
REMARK  146  A    between atoms: _338  and  _341
REMARK  147  A    between atoms: _341  and  _342
REMARK  148  A    between atoms: _348  and  _350
REMARK  149  A    between atoms: _350  and  _351
REMARK  150  A    between atoms: _350  and  _353
REMARK  151  A    between atoms: _353  and  _354
REMARK  152  A    between atoms: _356  and  _358
REMARK  153  A    between atoms: _358  and  _359
REMARK  154  A    between atoms: _358  and  _361
REMARK  155  A    between atoms: _361  and  _362
REMARK  156  A    between atoms: _365  and  _367
REMARK  157  A    between atoms: _367  and  _368
REMARK  158  A    between atoms: _367  and  _370
REMARK  159  A    between atoms: _370  and  _371
REMARK  160  A    between atoms: _374  and  _376
REMARK  161  A    between atoms: _376  and  _377
REMARK  162  A    between atoms: _376  and  _379
REMARK  163  A    between atoms: _379  and  _380
REMARK  164  A    between atoms: _385  and  _387
REMARK  165  A    between atoms: _387  and  _388
REMARK  166  A    between atoms: _387  and  _390
REMARK  167  A    between atoms: _390  and  _391
REMARK  168  A    between atoms: _394  and  _396
REMARK  169  A    between atoms: _396  and  _397
REMARK  170  A    between atoms: _396  and  _399
REMARK  171  A    between atoms: _402  and  _404
REMARK  172  A    between atoms: _404  and  _405
REMARK  173  A    between atoms: _404  and  _407
REMARK  174  A    between atoms: _407  and  _408
REMARK  175  A    between atoms: _408  and  _409
REMARK  176  A    between atoms: _414  and  _416
REMARK  177  A    between atoms: _416  and  _417
REMARK  178  A    between atoms: _416  and  _419
REMARK  179  A    between atoms: _419  and  _420
REMARK  180  A    between atoms: _420  and  _421
REMARK  181  A    between atoms: _426  and  _428
REMARK  182  A    between atoms: _428  and  _429
REMARK  183  A    between atoms: _428  and  _431
REMARK  184  A    between atoms: _431  and  _432
REMARK  185  A    between atoms: _438  and  _440
REMARK  186  A    between atoms: _440  and  _441
REMARK  187  A    between atoms: _440  and  _443
REMARK  188  A    between atoms: _443  and  _444
REMARK  189  A    between atoms: _454  and  _456
REMARK  190  A    between atoms: _456  and  _457
REMARK  191  A    between atoms: _459  and  _461
REMARK  192  A    between atoms: _461  and  _462
REMARK  193  A    between atoms: _461  and  _464
REMARK  194  A    between atoms: _464  and  _465
REMARK  195  A    between atoms: _468  and  _470
REMARK  196  A    between atoms: _470  and  _471
REMARK  197  A    between atoms: _474  and  _476
REMARK  198  A    between atoms: _476  and  _477
REMARK  199  A    between atoms: _476  and  _479
REMARK  200  A    between atoms: _479  and  _480
REMARK  201  A    between atoms: _483  and  _485
REMARK  202  A    between atoms: _485  and  _486
REMARK  203  A    between atoms: _485  and  _488
REMARK  204  A    between atoms: _488  and  _489
REMARK  205  A    between atoms: _492  and  _494
REMARK  206  A    between atoms: _494  and  _495
REMARK  207  A    between atoms: _497  and  _499
REMARK  208  A    between atoms: _499  and  _500
REMARK  209  A    between atoms: _499  and  _502
REMARK  210  A    between atoms: _502  and  _503
REMARK  211  A    between atoms: _506  and  _508
REMARK  212  A    between atoms: _508  and  _509
REMARK  213  A    between atoms: _508  and  _511
REMARK  214  A    between atoms: _511  and  _512
REMARK  215  A    between atoms: _515  and  _517
REMARK  216  A    between atoms: _517  and  _518
REMARK  217  A    between atoms: _517  and  _520
REMARK  218  A    between atoms: _520  and  _521
REMARK  219  A    between atoms: _524  and  _526
REMARK  220  A    between atoms: _526  and  _527
REMARK  221  A    between atoms: _526  and  _529
REMARK  222  A    between atoms: _529  and  _530
REMARK  223  A    between atoms: _533  and  _535
REMARK  224  A    between atoms: _535  and  _536
REMARK  225  A    between atoms: _535  and  _538
REMARK  226  A    between atoms: _538  and  _539
REMARK  227  A    between atoms: _544  and  _545
REMARK  228  A    between atoms: _547  and  _549
REMARK  229  A    between atoms: _549  and  _550
REMARK  230  A    between atoms: _549  and  _552
REMARK  231  A    between atoms: _555  and  _557
REMARK  232  A    between atoms: _557  and  _558
REMARK  233  A    between atoms: _560  and  _562
REMARK  234  A    between atoms: _562  and  _563
REMARK  235  A    between atoms: _562  and  _565
REMARK  236  A    between atoms: _565  and  _566
REMARK  237  A    between atoms: _572  and  _574
REMARK  238  A    between atoms: _574  and  _575
REMARK  239  A    between atoms: _574  and  _577
REMARK  240  A    between atoms: _577  and  _578
REMARK  241  A    between atoms: _584  and  _586
REMARK  242  A    between atoms: _586  and  _587
REMARK  243  A    between atoms: _589  and  _591
REMARK  244  A    between atoms: _591  and  _592
REMARK  245  A    between atoms: _594  and  _596
REMARK  246  A    between atoms: _596  and  _597
REMARK  247  A    between atoms: _596  and  _599
REMARK  248  A    between atoms: _599  and  _600
REMARK  249  A    between atoms: _600  and  _601
REMARK  250  A    between atoms: _606  and  _608
REMARK  251  A    between atoms: _608  and  _609
REMARK  252  A    between atoms: _608  and  _611
REMARK  253  A    between atoms: _611  and  _612
REMARK  254  A    between atoms: _614  and  _616
REMARK  255  A    between atoms: _616  and  _617
REMARK  256  A    between atoms: _619  and  _621
REMARK  257  A    between atoms: _621  and  _622
REMARK  258  A    between atoms: _621  and  _624
REMARK  259  A    between atoms: _624  and  _625
REMARK  260  A    between atoms: _628  and  _630
REMARK  261  A    between atoms: _630  and  _631
REMARK  262  A    between atoms: _633  and  _635
REMARK  263  A    between atoms: _635  and  _636
REMARK  264  A    between atoms: _635  and  _638
REMARK  265  A    between atoms: _638  and  _639
REMARK  266  A    between atoms: _642  and  _644
REMARK  267  A    between atoms: _644  and  _645
REMARK  268  A    between atoms: _644  and  _647
REMARK  269  A    between atoms: _647  and  _648
REMARK  270  A    between atoms: _653  and  _655
REMARK  271  A    between atoms: _655  and  _656
REMARK  272  A    between atoms: _655  and  _658
REMARK  273  A    between atoms: _658  and  _659
REMARK  274  A    between atoms: _662  and  _664
REMARK  275  A    between atoms: _664  and  _665
REMARK  276  A    between atoms: _664  and  _667
REMARK  277  A    between atoms: _667  and  _668
REMARK  278  A    between atoms: _674  and  _676
REMARK  279  A    between atoms: _676  and  _677
REMARK  280  A    between atoms: _679  and  _681
REMARK  281  A    between atoms: _681  and  _682
REMARK  282  A    between atoms: _681  and  _684
REMARK  283  A    between atoms: _684  and  _685
REMARK                            x       y       z     vdW  Elec       q    Type
REMARK                         _______ _______ _______ _____ _____    ______ ____
ROOT
ATOM      1  CA  THR A   5       6.954  45.131   3.940  0.00  0.00    +0.176 C 
ENDROOT
BRANCH   1   4
ATOM      2  C   SER A   4       9.226  44.295   4.369  0.00  0.00    +0.243 C 
ATOM      3  O   SER A   4       9.409  45.068   5.309  0.00  0.00    -0.273 OA
ATOM      4  N   THR A   5       8.133  44.323   3.634  0.00  0.00    -0.295 N 
ATOM      5  H   THR A   5       8.107  43.731   2.779  0.00  0.00    +0.150 HD
BRANCH   2   6
ATOM      6  CA  SER A   4      10.255  43.250   3.972  0.00  0.00    +0.178 C 
BRANCH   6   9
ATOM      7  C   PHE A   3       8.773  41.327   3.598  0.00  0.00    +0.241 C 
ATOM      8  O   PHE A   3       8.176  41.521   4.660  0.00  0.00    -0.273 OA
ATOM      9  N   SER A   4       9.643  42.209   3.133  0.00  0.00    -0.295 N 
ATOM     10  H   SER A   4       9.906  42.164   2.128  0.00  0.00    +0.150 HD
BRANCH   7  11
ATOM     11  CA  PHE A   3       8.560  40.058   2.800  0.00  0.00    +0.153 C 
BRANCH  11  14
ATOM     12  C   ALA A   2       9.103  38.222   4.250  0.00  0.00    +0.241 C 
ATOM     13  O   ALA A   2      10.290  38.519   4.108  0.00  0.00    -0.273 OA
ATOM     14  N   PHE A   3       8.158  38.944   3.674  0.00  0.00    -0.297 N 
ATOM     15  H   PHE A   3       7.153  38.730   3.835  0.00  0.00    +0.150 HD
BRANCH  12  16
ATOM     16  CA  ALA A   2       8.685  37.027   5.088  0.00  0.00    +0.149 C 
ATOM     17  CB  ALA A   2       7.501  37.394   5.967  0.00  0.00    +0.031 C 
BRANCH  16  19
ATOM     18  C   LEU A   1      10.767  35.814   5.409  0.00  0.00    +0.238 C 
ATOM     19  N   ALA A   2       9.805  36.560   5.920  0.00  0.00    -0.297 N 
ATOM     20  H   ALA A   2       9.839  36.822   6.926  0.00  0.00    +0.150 HD
ATOM     21  O   LEU A   1      10.690  35.343   4.275  0.00  0.00    -0.274 OA
BRANCH  18  22
ATOM     22  CA  LEU A   1      12.008  35.547   6.259  0.00  0.00    +0.145 C 
BRANCH  22  23
ATOM     23  N   LEU A   1      11.765  35.883   7.669  0.00  0.00    -0.238 NA
ATOM     24  H   LEU A   1      10.938  35.474   8.150  0.00  0.00    +0.142 HD
ENDBRANCH  22  23
BRANCH  22  25
ATOM     25  CB  LEU A   1      12.416  34.089   6.118  0.00  0.00    +0.026 C 
BRANCH  25  26
ATOM     26  CG  LEU A   1      13.812  33.851   6.674  0.00  0.00    +0.002 C 
ATOM     27  CD2 LEU A   1      14.121  32.366   6.756  0.00  0.00    +0.000 C 
ATOM     28  CD1 LEU A   1      14.912  34.608   5.947  0.00  0.00    +0.000 C 
ENDBRANCH  25  26
ENDBRANCH  22  25
ENDBRANCH  18  22
ENDBRANCH  16  19
ENDBRANCH  12  16
ENDBRANCH  11  14
BRANCH  11  29
ATOM     29  CB  PHE A   3       7.514  40.280   1.710  0.00  0.00    +0.055 C 
BRANCH  29  30
ATOM     30  CG  PHE A   3       7.524  39.079   0.757  0.00  0.00    -0.020 A 
ATOM     31  CD2 PHE A   3       6.636  38.024   0.939  0.00  0.00    -0.004 A 
ATOM     32  CE2 PHE A   3       6.645  36.931   0.081  0.00  0.00    -0.000 A 
ATOM     33  CZ  PHE A   3       7.549  36.881  -0.975  0.00  0.00    -0.000 A 
ATOM     34  CE1 PHE A   3       8.441  37.931  -1.163  0.00  0.00    -0.000 A 
ATOM     35  CD1 PHE A   3       8.428  39.023  -0.299  0.00  0.00    -0.004 A 
ENDBRANCH  29  30
ENDBRANCH  11  29
ENDBRANCH   7  11
ENDBRANCH   6   9
BRANCH   6  36
ATOM     36  CB  SER A   4      11.423  43.902   3.269  0.00  0.00    +0.166 C 
BRANCH  36  37
ATOM     37  OG  SER A   4      12.593  43.087   3.386  0.00  0.00    -0.380 OA
ATOM     38  H   SER A   4      13.348  43.527   2.921  0.00  0.00    +0.211 HD
ENDBRANCH  36  37
ENDBRANCH   6  36
ENDBRANCH   2   6
ENDBRANCH   1   4
BRANCH   1  39
ATOM     39  C   THR A   5       6.421  44.859   5.328  0.00  0.00    +0.243 C 
ATOM     40  N   LEU A   6       6.712  43.744   5.978  0.00  0.00    -0.297 N 
ATOM     41  H   LEU A   6       7.339  43.045   5.531  0.00  0.00    +0.150 HD
ATOM     42  O   THR A   5       5.706  45.709   5.867  0.00  0.00    -0.273 OA
BRANCH  40  43
ATOM     43  CA  LEU A   6       6.171  43.470   7.315  0.00  0.00    +0.149 C 
BRANCH  43  44
ATOM     44  C   LEU A   6       7.135  43.933   8.409  0.00  0.00    +0.241 C 
ATOM     45  O   LEU A   6       6.779  43.861   9.586  0.00  0.00    -0.273 OA
ATOM     46  N   ASN A   7       8.320  44.392   8.063  0.00  0.00    -0.297 N 
ATOM     47  H   ASN A   7       8.535  44.507   7.052  0.00  0.00    +0.150 HD
BRANCH  46  48
ATOM     48  CA  ASN A   7       9.353  44.749   9.051  0.00  0.00    +0.158 C 
BRANCH  48  49
ATOM     49  C   ASN A   7       8.861  45.858   9.965  0.00  0.00    +0.241 C 
ATOM     50  N   THR A   8       9.179  45.796  11.271  0.00  0.00    -0.295 N 
ATOM     51  H   THR A   8       9.891  45.143  11.656  0.00  0.00    +0.150 HD
ATOM     52  O   ASN A   7       8.254  46.822   9.495  0.00  0.00    -0.273 OA
BRANCH  50  53
ATOM     53  CA  THR A   8       8.419  46.743  12.098  0.00  0.00    +0.176 C 
BRANCH  53  54
ATOM     54  C   THR A   8       9.279  47.945  12.480  0.00  0.00    +0.243 C 
ATOM     55  O   THR A   8       8.872  48.806  13.261  0.00  0.00    -0.273 OA
ATOM     56  N   VAL A   9      10.475  48.022  11.940  0.00  0.00    -0.298 N 
ATOM     57  H   VAL A   9      10.794  47.294  11.269  0.00  0.00    +0.150 HD
BRANCH  56  58
ATOM     58  CA  VAL A   9      11.357  49.141  12.290  0.00  0.00    +0.137 C 
BRANCH  58  59
ATOM     59  CB  VAL A   9      12.787  48.895  11.819  0.00  0.00    +0.026 C 
ATOM     60  CG2 VAL A   9      13.468  47.730  12.540  0.00  0.00    +0.002 C 
ATOM     61  CG1 VAL A   9      13.696  50.109  12.042  0.00  0.00    +0.002 C 
ENDBRANCH  58  59
BRANCH  58  62
ATOM     62  C   VAL A   9      10.845  50.429  11.658  0.00  0.00    +0.227 C 
ATOM     63  O   VAL A   9      10.379  50.448  10.514  0.00  0.00    -0.286 OA
ENDBRANCH  58  62
ENDBRANCH  56  58
ENDBRANCH  53  54
BRANCH  53  64
ATOM     64  CB  THR A   8       7.974  46.082  13.404  0.00  0.00    +0.137 C 
ATOM     65  CG2 THR A   8       7.316  44.722  13.187  0.00  0.00    +0.034 C 
BRANCH  64  66
ATOM     66  OG1 THR A   8       9.095  45.884  14.258  0.00  0.00    -0.382 OA
ATOM     67  HG1 THR A   8       9.754  45.300  13.806  0.00  0.00    +0.210 HD
ENDBRANCH  64  66
ENDBRANCH  53  64
ENDBRANCH  50  53
ENDBRANCH  48  49
BRANCH  48  68
ATOM     68  CB  ASN A   7      10.619  45.220   8.324  0.00  0.00    +0.114 C 
BRANCH  68  69
ATOM     69  CG  ASN A   7      11.701  45.578   9.344  0.00  0.00    +0.222 C 
ATOM     70  OD1 ASN A   7      12.334  44.618   9.994  0.00  0.00    -0.275 OA
ATOM     71  ND2 ASN A   7      12.000  46.842   9.576  0.00  0.00    -0.329 N 
ATOM     72 HD21 ASN A   7      12.735  47.083  10.271  0.00  0.00    +0.145 HD
ATOM     73 HD22 ASN A   7      11.501  47.597   9.064  0.00  0.00    +0.145 HD
ENDBRANCH  68  69
ENDBRANCH  48  68
ENDBRANCH  46  48
ENDBRANCH  43  44
BRANCH  43  74
ATOM     74  CB  LEU A   6       5.887  41.989   7.493  0.00  0.00    +0.029 C 
BRANCH  74  75
ATOM     75  CG  LEU A   6       4.721  41.516   6.640  0.00  0.00    +0.002 C 
ATOM     76  CD2 LEU A   6       4.410  40.068   6.988  0.00  0.00    +0.000 C 
ATOM     77  CD1 LEU A   6       3.481  42.389   6.742  0.00  0.00    +0.000 C 
ENDBRANCH  74  75
ENDBRANCH  43  74
ENDBRANCH  40  43
ENDBRANCH   1  39
BRANCH   1  78
ATOM     78  CB  THR A   5       5.877  44.920   2.894  0.00  0.00    +0.137 C 
ATOM     79  CG2 THR A   5       5.247  43.572   3.063  0.00  0.00    +0.034 C 
BRANCH  78  80
ATOM     80  OG1 THR A   5       4.868  45.922   2.997  0.00  0.00    -0.382 OA
ATOM     81  HG1 THR A   5       5.275  46.814   2.861  0.00  0.00    +0.210 HD
ENDBRANCH  78  80
ENDBRANCH   1  78
TORSDOF 33
REMARK  Name = ../refined-set-2016/5er2/5er2_pocket.pdb
REMARK  283 active torsions:
REMARK  status: ('A' for Active; 'I' for Inactive)
REMARK    1  A    between atoms: _1  and  _3
REMARK    2  A    between atoms: _3  and  _4
REMARK    3  A    between atoms: _3  and  _6
REMARK    4  A    between atoms: _6  and  _7
REMARK    5  A    between atoms: _10  and  _12
REMARK    6  A    between atoms: _12  and  _13
REMARK    7  A    between atoms: _12  and  _15
REMARK    8  A    between atoms: _15  and  _16
REMARK    9  A    between atoms: _19  and  _21
REMARK   10  A    between atoms: _21  and  _22
REMARK   11  A    between atoms: _21  and  _24
REMARK   12  A    between atoms: _24  and  _25
REMARK   13  A    between atoms: _28  and  _30
REMARK   14  A    between atoms: _30  and  _31
REMARK   15  A    between atoms: _30  and  _33
REMARK   16  A    between atoms: _33  and  _34
REMARK   17  A    between atoms: _37  and  _39
REMARK   18  A    between atoms: _39  and  _40
REMARK   19  A    between atoms: _39  and  _42
REMARK   20  A    between atoms: _42  and  _43
REMARK   21  A    between atoms: _46  and  _48
REMARK   22  A    between atoms: _48  and  _49
REMARK   23  A    between atoms: _52  and  _54
REMARK   24  A    between atoms: _54  and  _55
REMARK   25  A    between atoms: _54  and  _57
REMARK   26  A    between atoms: _57  and  _58
REMARK   27  A    between atoms: _63  and  _64
REMARK   28  A    between atoms: _66  and  _68
REMARK   29  A    between atoms: _68  and  _69
REMARK   30  A    between atoms: _68  and  _71
REMARK   31  A    between atoms: _71  and  _72
REMARK   32  A    between atoms: _75  and  _77
REMARK   33  A    between atoms: _77  and  _78
REMARK   34  A    between atoms: _77  and  _80
REMARK   35  A    between atoms: _80  and  _81
REMARK   36  A    between atoms: _87  and  _89
REMARK   37  A    between atoms: _89  and  _90
REMARK   38  A    between atoms: _89  and  _92
REMARK   39  A    between atoms: _92  and  _93
REMARK   40  A    between atoms: _96  and  _98
REMARK   41  A    between atoms: _98  and  _99
REMARK   42  A    between atoms: _98  and  _101
REMARK   43  A    between atoms: _101  and  _102
REMARK   44  A    between atoms: _105  and  _107
REMARK   45  A    between atoms: _107  and  _108
REMARK   46  A    between atoms: _110  and  _112
REMARK   47  A    between atoms: _112  and  _113
REMARK   48  A    between atoms: _112  and  _115
REMARK   49  A    between atoms: _115  and  _116
REMARK   50  A    between atoms: _118  and  _120
REMARK   51  A    between atoms: _120  and  _121
REMARK   52  A    between atoms: _120  and  _123
REMARK   53  A    between atoms: _123  and  _124
REMARK   54  A    between atoms: _126  and  _128
REMARK   55  A    between atoms: _128  and  _129
REMARK   56  A    between atoms: _128  and  _131
REMARK   57  A    between atoms: _131  and  _132
REMARK   58  A    between atoms: _135  and  _137
REMARK   59  A    between atoms: _137  and  _138
REMARK   60  A    between atoms: _137  and  _140
REMARK   61  A    between atoms: _140  and  _141
REMARK   62  A    between atoms: _151  and  _153
REMARK   63  A    between atoms: _153  and  _154
REMARK   64  A    between atoms: _153  and  _156
REMARK   65  A    between atoms: _156  and  _157
REMARK   66  A    between atoms: _159  and  _161
REMARK   67  A    between atoms: _161  and  _162
REMARK   68  A    between atoms: _161  and  _164
REMARK   69  A    between atoms: _164  and  _165
REMARK   70  A    between atoms: _168  and  _170
REMARK   71  A    between atoms: _170  and  _171
REMARK   72  A    between atoms: _170  and  _173
REMARK   73  A    between atoms: _173  and  _174
REMARK   74  A    between atoms: _176  and  _178
REMARK   75  A    between atoms: _178  and  _179
REMARK   76  A    between atoms: _178  and  _181
REMARK   77  A    between atoms: _181  and  _182
REMARK   78  A    between atoms: _187  and  _188
REMARK   79  A    between atoms: _190  and  _192
REMARK   80  A    between atoms: _192  and  _193
REMARK   81  A    between atoms: _195  and  _197
REMARK   82  A    between atoms: _197  and  _198
REMARK   83  A    between atoms: _197  and  _200
REMARK   84  A    between atoms: _200  and  _201
REMARK   85  A    between atoms: _204  and  _206
REMARK   86  A    between atoms: _206  and  _207
REMARK   87  A    between atoms: _209  and  _211
REMARK   88  A    between atoms: _211  and  _212
REMARK   89  A    between atoms: _211  and  _214
REMARK   90  A    between atoms: _214  and  _215
REMARK   91  A    between atoms: _217  and  _219
REMARK   92  A    between atoms: _219  and  _220
REMARK   93  A    between atoms: _219  and  _222
REMARK   94  A    between atoms: _222  and  _223
REMARK   95  A    between atoms: _225  and  _227
REMARK   96  A    between atoms: _227  and  _228
REMARK   97  A    between atoms: _227  and  _230
REMARK   98  A    between atoms: _230  and  _231
REMARK   99  A    between atoms: _233  and  _235
REMARK  100  A    between atoms: _235  and  _236
REMARK  101  A    between atoms: _235  and  _238
REMARK  102  A    between atoms: _238  and  _239
REMARK  103  A    between atoms: _241  and  _243
REMARK  104  A    between atoms: _243  and  _244
REMARK  105  A    between atoms: _243  and  _246
REMARK  106  A    between atoms: _246  and  _247
REMARK  107  A    between atoms: _253  and  _255
REMARK  108  A    between atoms: _255  and  _256
REMARK  109  A    between atoms: _255  and  _258
REMARK  110  A    between atoms: _258  and  _259
REMARK  111  A    between atoms: _259  and  _260
REMARK  112  A    between atoms: _263  and  _265
REMARK  113  A    between atoms: _265  and  _266
REMARK  114  A    between atoms: _265  and  _268
REMARK  115  A    between atoms: _268  and  _269
REMARK  116  A    between atoms: _272  and  _274
REMARK  117  A    between atoms: _274  and  _275
REMARK  118  A    between atoms: _274  and  _277
REMARK  119  A    between atoms: _277  and  _278
REMARK  120  A    between atoms: _280  and  _282
REMARK  121  A    between atoms: _282  and  _283
REMARK  122  A    between atoms: _282  and  _285
REMARK  123  A    between atoms: _285  and  _286
REMARK  124  A    between atoms: _289  and  _291
REMARK  125  A    between atoms: _291  and  _292
REMARK  126  A    between atoms: _291  and  _294
REMARK  127  A    between atoms: _294  and  _295
REMARK  128  A    between atoms: _298  and  _300
REMARK  129  A    between atoms: _300  and  _301
REMARK  130  A    between atoms: _303  and  _305
REMARK  131  A    between atoms: _305  and  _306
REMARK  132  A    between atoms: _305  and  _308
REMARK  133  A    between atoms: _308  and  _309
REMARK  134  A    between atoms: _312  and  _314
REMARK  135  A    between atoms: _314  and  _315
REMARK  136  A    between atoms: _314  and  _317
REMARK  137  A    between atoms: _317  and  _318
REMARK  138  A    between atoms: _321  and  _323
REMARK  139  A    between atoms: _323  and  _324
REMARK  140  A    between atoms: _323  and  _326
REMARK  141  A    between atoms: _326  and  _327
REMARK  142  A    between atoms: _330  and  _332
REMARK  143  A    between atoms: _332  and  _333
REMARK  144  A    between atoms: _336  and  _338
REMARK  145  A    between atoms: _338  and  _339
REMARK  146  A    between atoms: _338  and  _341
REMARK  147  A    between atoms: _341  and  _342
REMARK  148  A    between atoms: _348  and  _350
REMARK  149  A    between atoms: _350  and  _351
REMARK  150  A    between atoms: _350  and  _353
REMARK  151  A    between atoms: _353  and  _354
REMARK  152  A    between atoms: _356  and  _358
REMARK  153  A    between atoms: _358  and  _359
REMARK  154  A    between atoms: _358  and  _361
REMARK  155  A    between atoms: _361  and  _362
REMARK  156  A    between atoms: _365  and  _367
REMARK  157  A    between atoms: _367  and  _368
REMARK  158  A    between atoms: _367  and  _370
REMARK  159  A    between atoms: _370  and  _371
REMARK  160  A    between atoms: _374  and  _376
REMARK  161  A    between atoms: _376  and  _377
REMARK  162  A    between atoms: _376  and  _379
REMARK  163  A    between atoms: _379  and  _380
REMARK  164  A    between atoms: _385  and  _387
REMARK  165  A    between atoms: _387  and  _388
REMARK  166  A    between atoms: _387  and  _390
REMARK  167  A    between atoms: _390  and  _391
REMARK  168  A    between atoms: _394  and  _396
REMARK  169  A    between atoms: _396  and  _397
REMARK  170  A    between atoms: _396  and  _399
REMARK  171  A    between atoms: _402  and  _404
REMARK  172  A    between atoms: _404  and  _405
REMARK  173  A    between atoms: _404  and  _407
REMARK  174  A    between atoms: _407  and  _408
REMARK  175  A    between atoms: _408  and  _409
REMARK  176  A    between atoms: _414  and  _416
REMARK  177  A    between atoms: _416  and  _417
REMARK  178  A    between atoms: _416  and  _419
REMARK  179  A    between atoms: _419  and  _420
REMARK  180  A    between atoms: _420  and  _421
REMARK  181  A    between atoms: _426  and  _428
REMARK  182  A    between atoms: _428  and  _429
REMARK  183  A    between atoms: _428  and  _431
REMARK  184  A    between atoms: _431  and  _432
REMARK  185  A    between atoms: _438  and  _440
REMARK  186  A    between atoms: _440  and  _441
REMARK  187  A    between atoms: _440  and  _443
REMARK  188  A    between atoms: _443  and  _444
REMARK  189  A    between atoms: _454  and  _456
REMARK  190  A    between atoms: _456  and  _457
REMARK  191  A    between atoms: _459  and  _461
REMARK  192  A    between atoms: _461  and  _462
REMARK  193  A    between atoms: _461  and  _464
REMARK  194  A    between atoms: _464  and  _465
REMARK  195  A    between atoms: _468  and  _470
REMARK  196  A    between atoms: _470  and  _471
REMARK  197  A    between atoms: _474  and  _476
REMARK  198  A    between atoms: _476  and  _477
REMARK  199  A    between atoms: _476  and  _479
REMARK  200  A    between atoms: _479  and  _480
REMARK  201  A    between atoms: _483  and  _485
REMARK  202  A    between atoms: _485  and  _486
REMARK  203  A    between atoms: _485  and  _488
REMARK  204  A    between atoms: _488  and  _489
REMARK  205  A    between atoms: _492  and  _494
REMARK  206  A    between atoms: _494  and  _495
REMARK  207  A    between atoms: _497  and  _499
REMARK  208  A    between atoms: _499  and  _500
REMARK  209  A    between atoms: _499  and  _502
REMARK  210  A    between atoms: _502  and  _503
REMARK  211  A    between atoms: _506  and  _508
REMARK  212  A    between atoms: _508  and  _509
REMARK  213  A    between atoms: _508  and  _511
REMARK  214  A    between atoms: _511  and  _512
REMARK  215  A    between atoms: _515  and  _517
REMARK  216  A    between atoms: _517  and  _518
REMARK  217  A    between atoms: _517  and  _520
REMARK  218  A    between atoms: _520  and  _521
REMARK  219  A    between atoms: _524  and  _526
REMARK  220  A    between atoms: _526  and  _527
REMARK  221  A    between atoms: _526  and  _529
REMARK  222  A    between atoms: _529  and  _530
REMARK  223  A    between atoms: _533  and  _535
REMARK  224  A    between atoms: _535  and  _536
REMARK  225  A    between atoms: _535  and  _538
REMARK  226  A    between atoms: _538  and  _539
REMARK  227  A    between atoms: _544  and  _545
REMARK  228  A    between atoms: _547  and  _549
REMARK  229  A    between atoms: _549  and  _550
REMARK  230  A    between atoms: _549  and  _552
REMARK  231  A    between atoms: _555  and  _557
REMARK  232  A    between atoms: _557  and  _558
REMARK  233  A    between atoms: _560  and  _562
REMARK  234  A    between atoms: _562  and  _563
REMARK  235  A    between atoms: _562  and  _565
REMARK  236  A    between atoms: _565  and  _566
REMARK  237  A    between atoms: _572  and  _574
REMARK  238  A    between atoms: _574  and  _575
REMARK  239  A    between atoms: _574  and  _577
REMARK  240  A    between atoms: _577  and  _578
REMARK  241  A    between atoms: _584  and  _586
REMARK  242  A    between atoms: _586  and  _587
REMARK  243  A    between atoms: _589  and  _591
REMARK  244  A    between atoms: _591  and  _592
REMARK  245  A    between atoms: _594  and  _596
REMARK  246  A    between atoms: _596  and  _597
REMARK  247  A    between atoms: _596  and  _599
REMARK  248  A    between atoms: _599  and  _600
REMARK  249  A    between atoms: _600  and  _601
REMARK  250  A    between atoms: _606  and  _608
REMARK  251  A    between atoms: _608  and  _609
REMARK  252  A    between atoms: _608  and  _611
REMARK  253  A    between atoms: _611  and  _612
REMARK  254  A    between atoms: _614  and  _616
REMARK  255  A    between atoms: _616  and  _617
REMARK  256  A    between atoms: _619  and  _621
REMARK  257  A    between atoms: _621  and  _622
REMARK  258  A    between atoms: _621  and  _624
REMARK  259  A    between atoms: _624  and  _625
REMARK  260  A    between atoms: _628  and  _630
REMARK  261  A    between atoms: _630  and  _631
REMARK  262  A    between atoms: _633  and  _635
REMARK  263  A    between atoms: _635  and  _636
REMARK  264  A    between atoms: _635  and  _638
REMARK  265  A    between atoms: _638  and  _639
REMARK  266  A    between atoms: _642  and  _644
REMARK  267  A    between atoms: _644  and  _645
REMARK  268  A    between atoms: _644  and  _647
REMARK  269  A    between atoms: _647  and  _648
REMARK  270  A    between atoms: _653  and  _655
REMARK  271  A    between atoms: _655  and  _656
REMARK  272  A    between atoms: _655  and  _658
REMARK  273  A    between atoms: _658  and  _659
REMARK  274  A    between atoms: _662  and  _664
REMARK  275  A    between atoms: _664  and  _665
REMARK  276  A    between atoms: _664  and  _667
REMARK  277  A    between atoms: _667  and  _668
REMARK  278  A    between atoms: _674  and  _676
REMARK  279  A    between atoms: _676  and  _677
REMARK  280  A    between atoms: _679  and  _681
REMARK  281  A    between atoms: _681  and  _682
REMARK  282  A    between atoms: _681  and  _684
REMARK  283  A    between atoms: _684  and  _685
REMARK                            x       y       z     vdW  Elec       q    Type
REMARK                         _______ _______ _______ _____ _____    ______ ____
ROOT
ATOM      1  CB  GLN A   1      10.540  49.075   6.606  0.00  0.00    +0.035 C 
ENDROOT
BRANCH   1   2
ATOM      2  CA  GLN A   1      11.647  49.714   7.433  0.00  0.00    +0.134 C 
BRANCH   2   3
ATOM      3  N   GLN A   1      11.576  51.185   7.326  0.00  0.00    -0.239 NA
ATOM      4  H   GLN A   1      10.896  51.609   6.663  0.00  0.00    +0.142 HD
ENDBRANCH   2   3
BRANCH   2   5
ATOM      5  C   GLN A   1      13.007  49.211   6.938  0.00  0.00    +0.224 C 
ATOM      6  O   GLN A   1      13.639  49.826   6.069  0.00  0.00    -0.287 OA
ENDBRANCH   2   5
ENDBRANCH   1   2
BRANCH   1   7
ATOM      7  CG  GLN A   1       9.153  49.274   7.214  0.00  0.00    +0.087 C 
BRANCH   7   8
ATOM      8  CD  GLN A   1       8.071  48.548   6.423  0.00  0.00    +0.219 C 
ATOM      9  OE1 GLN A   1       7.278  47.807   7.004  0.00  0.00    -0.275 OA
ATOM     10  NE2 GLN A   1       7.998  48.713   5.116  0.00  0.00    -0.329 N 
ATOM     11 HE21 GLN A   1       8.672  49.341   4.633  0.00  0.00    +0.145 HD
ATOM     12 HE22 GLN A   1       7.267  48.215   4.569  0.00  0.00    +0.145 HD
ENDBRANCH   7   8
ENDBRANCH   1   7
TORSDOF 5
REMARK  Name = ../refined-set-2016/5er2/5er2_pocket.pdb
REMARK  283 active torsions:
REMARK  status: ('A' for Active; 'I' for Inactive)
REMARK    1  A    between atoms: _1  and  _3
REMARK    2  A    between atoms: _3  and  _4
REMARK    3  A    between atoms: _3  and  _6
REMARK    4  A    between atoms: _6  and  _7
REMARK    5  A    between atoms: _10  and  _12
REMARK    6  A    between atoms: _12  and  _13
REMARK    7  A    between atoms: _12  and  _15
REMARK    8  A    between atoms: _15  and  _16
REMARK    9  A    between atoms: _19  and  _21
REMARK   10  A    between atoms: _21  and  _22
REMARK   11  A    between atoms: _21  and  _24
REMARK   12  A    between atoms: _24  and  _25
REMARK   13  A    between atoms: _28  and  _30
REMARK   14  A    between atoms: _30  and  _31
REMARK   15  A    between atoms: _30  and  _33
REMARK   16  A    between atoms: _33  and  _34
REMARK   17  A    between atoms: _37  and  _39
REMARK   18  A    between atoms: _39  and  _40
REMARK   19  A    between atoms: _39  and  _42
REMARK   20  A    between atoms: _42  and  _43
REMARK   21  A    between atoms: _46  and  _48
REMARK   22  A    between atoms: _48  and  _49
REMARK   23  A    between atoms: _52  and  _54
REMARK   24  A    between atoms: _54  and  _55
REMARK   25  A    between atoms: _54  and  _57
REMARK   26  A    between atoms: _57  and  _58
REMARK   27  A    between atoms: _63  and  _64
REMARK   28  A    between atoms: _66  and  _68
REMARK   29  A    between atoms: _68  and  _69
REMARK   30  A    between atoms: _68  and  _71
REMARK   31  A    between atoms: _71  and  _72
REMARK   32  A    between atoms: _75  and  _77
REMARK   33  A    between atoms: _77  and  _78
REMARK   34  A    between atoms: _77  and  _80
REMARK   35  A    between atoms: _80  and  _81
REMARK   36  A    between atoms: _87  and  _89
REMARK   37  A    between atoms: _89  and  _90
REMARK   38  A    between atoms: _89  and  _92
REMARK   39  A    between atoms: _92  and  _93
REMARK   40  A    between atoms: _96  and  _98
REMARK   41  A    between atoms: _98  and  _99
REMARK   42  A    between atoms: _98  and  _101
REMARK   43  A    between atoms: _101  and  _102
REMARK   44  A    between atoms: _105  and  _107
REMARK   45  A    between atoms: _107  and  _108
REMARK   46  A    between atoms: _110  and  _112
REMARK   47  A    between atoms: _112  and  _113
REMARK   48  A    between atoms: _112  and  _115
REMARK   49  A    between atoms: _115  and  _116
REMARK   50  A    between atoms: _118  and  _120
REMARK   51  A    between atoms: _120  and  _121
REMARK   52  A    between atoms: _120  and  _123
REMARK   53  A    between atoms: _123  and  _124
REMARK   54  A    between atoms: _126  and  _128
REMARK   55  A    between atoms: _128  and  _129
REMARK   56  A    between atoms: _128  and  _131
REMARK   57  A    between atoms: _131  and  _132
REMARK   58  A    between atoms: _135  and  _137
REMARK   59  A    between atoms: _137  and  _138
REMARK   60  A    between atoms: _137  and  _140
REMARK   61  A    between atoms: _140  and  _141
REMARK   62  A    between atoms: _151  and  _153
REMARK   63  A    between atoms: _153  and  _154
REMARK   64  A    between atoms: _153  and  _156
REMARK   65  A    between atoms: _156  and  _157
REMARK   66  A    between atoms: _159  and  _161
REMARK   67  A    between atoms: _161  and  _162
REMARK   68  A    between atoms: _161  and  _164
REMARK   69  A    between atoms: _164  and  _165
REMARK   70  A    between atoms: _168  and  _170
REMARK   71  A    between atoms: _170  and  _171
REMARK   72  A    between atoms: _170  and  _173
REMARK   73  A    between atoms: _173  and  _174
REMARK   74  A    between atoms: _176  and  _178
REMARK   75  A    between atoms: _178  and  _179
REMARK   76  A    between atoms: _178  and  _181
REMARK   77  A    between atoms: _181  and  _182
REMARK   78  A    between atoms: _187  and  _188
REMARK   79  A    between atoms: _190  and  _192
REMARK   80  A    between atoms: _192  and  _193
REMARK   81  A    between atoms: _195  and  _197
REMARK   82  A    between atoms: _197  and  _198
REMARK   83  A    between atoms: _197  and  _200
REMARK   84  A    between atoms: _200  and  _201
REMARK   85  A    between atoms: _204  and  _206
REMARK   86  A    between atoms: _206  and  _207
REMARK   87  A    between atoms: _209  and  _211
REMARK   88  A    between atoms: _211  and  _212
REMARK   89  A    between atoms: _211  and  _214
REMARK   90  A    between atoms: _214  and  _215
REMARK   91  A    between atoms: _217  and  _219
REMARK   92  A    between atoms: _219  and  _220
REMARK   93  A    between atoms: _219  and  _222
REMARK   94  A    between atoms: _222  and  _223
REMARK   95  A    between atoms: _225  and  _227
REMARK   96  A    between atoms: _227  and  _228
REMARK   97  A    between atoms: _227  and  _230
REMARK   98  A    between atoms: _230  and  _231
REMARK   99  A    between atoms: _233  and  _235
REMARK  100  A    between atoms: _235  and  _236
REMARK  101  A    between atoms: _235  and  _238
REMARK  102  A    between atoms: _238  and  _239
REMARK  103  A    between atoms: _241  and  _243
REMARK  104  A    between atoms: _243  and  _244
REMARK  105  A    between atoms: _243  and  _246
REMARK  106  A    between atoms: _246  and  _247
REMARK  107  A    between atoms: _253  and  _255
REMARK  108  A    between atoms: _255  and  _256
REMARK  109  A    between atoms: _255  and  _258
REMARK  110  A    between atoms: _258  and  _259
REMARK  111  A    between atoms: _259  and  _260
REMARK  112  A    between atoms: _263  and  _265
REMARK  113  A    between atoms: _265  and  _266
REMARK  114  A    between atoms: _265  and  _268
REMARK  115  A    between atoms: _268  and  _269
REMARK  116  A    between atoms: _272  and  _274
REMARK  117  A    between atoms: _274  and  _275
REMARK  118  A    between atoms: _274  and  _277
REMARK  119  A    between atoms: _277  and  _278
REMARK  120  A    between atoms: _280  and  _282
REMARK  121  A    between atoms: _282  and  _283
REMARK  122  A    between atoms: _282  and  _285
REMARK  123  A    between atoms: _285  and  _286
REMARK  124  A    between atoms: _289  and  _291
REMARK  125  A    between atoms: _291  and  _292
REMARK  126  A    between atoms: _291  and  _294
REMARK  127  A    between atoms: _294  and  _295
REMARK  128  A    between atoms: _298  and  _300
REMARK  129  A    between atoms: _300  and  _301
REMARK  130  A    between atoms: _303  and  _305
REMARK  131  A    between atoms: _305  and  _306
REMARK  132  A    between atoms: _305  and  _308
REMARK  133  A    between atoms: _308  and  _309
REMARK  134  A    between atoms: _312  and  _314
REMARK  135  A    between atoms: _314  and  _315
REMARK  136  A    between atoms: _314  and  _317
REMARK  137  A    between atoms: _317  and  _318
REMARK  138  A    between atoms: _321  and  _323
REMARK  139  A    between atoms: _323  and  _324
REMARK  140  A    between atoms: _323  and  _326
REMARK  141  A    between atoms: _326  and  _327
REMARK  142  A    between atoms: _330  and  _332
REMARK  143  A    between atoms: _332  and  _333
REMARK  144  A    between atoms: _336  and  _338
REMARK  145  A    between atoms: _338  and  _339
REMARK  146  A    between atoms: _338  and  _341
REMARK  147  A    between atoms: _341  and  _342
REMARK  148  A    between atoms: _348  and  _350
REMARK  149  A    between atoms: _350  and  _351
REMARK  150  A    between atoms: _350  and  _353
REMARK  151  A    between atoms: _353  and  _354
REMARK  152  A    between atoms: _356  and  _358
REMARK  153  A    between atoms: _358  and  _359
REMARK  154  A    between atoms: _358  and  _361
REMARK  155  A    between atoms: _361  and  _362
REMARK  156  A    between atoms: _365  and  _367
REMARK  157  A    between atoms: _367  and  _368
REMARK  158  A    between atoms: _367  and  _370
REMARK  159  A    between atoms: _370  and  _371
REMARK  160  A    between atoms: _374  and  _376
REMARK  161  A    between atoms: _376  and  _377
REMARK  162  A    between atoms: _376  and  _379
REMARK  163  A    between atoms: _379  and  _380
REMARK  164  A    between atoms: _385  and  _387
REMARK  165  A    between atoms: _387  and  _388
REMARK  166  A    between atoms: _387  and  _390
REMARK  167  A    between atoms: _390  and  _391
REMARK  168  A    between atoms: _394  and  _396
REMARK  169  A    between atoms: _396  and  _397
REMARK  170  A    between atoms: _396  and  _399
REMARK  171  A    between atoms: _402  and  _404
REMARK  172  A    between atoms: _404  and  _405
REMARK  173  A    between atoms: _404  and  _407
REMARK  174  A    between atoms: _407  and  _408
REMARK  175  A    between atoms: _408  and  _409
REMARK  176  A    between atoms: _414  and  _416
REMARK  177  A    between atoms: _416  and  _417
REMARK  178  A    between atoms: _416  and  _419
REMARK  179  A    between atoms: _419  and  _420
REMARK  180  A    between atoms: _420  and  _421
REMARK  181  A    between atoms: _426  and  _428
REMARK  182  A    between atoms: _428  and  _429
REMARK  183  A    between atoms: _428  and  _431
REMARK  184  A    between atoms: _431  and  _432
REMARK  185  A    between atoms: _438  and  _440
REMARK  186  A    between atoms: _440  and  _441
REMARK  187  A    between atoms: _440  and  _443
REMARK  188  A    between atoms: _443  and  _444
REMARK  189  A    between atoms: _454  and  _456
REMARK  190  A    between atoms: _456  and  _457
REMARK  191  A    between atoms: _459  and  _461
REMARK  192  A    between atoms: _461  and  _462
REMARK  193  A    between atoms: _461  and  _464
REMARK  194  A    between atoms: _464  and  _465
REMARK  195  A    between atoms: _468  and  _470
REMARK  196  A    between atoms: _470  and  _471
REMARK  197  A    between atoms: _474  and  _476
REMARK  198  A    between atoms: _476  and  _477
REMARK  199  A    between atoms: _476  and  _479
REMARK  200  A    between atoms: _479  and  _480
REMARK  201  A    between atoms: _483  and  _485
REMARK  202  A    between atoms: _485  and  _486
REMARK  203  A    between atoms: _485  and  _488
REMARK  204  A    between atoms: _488  and  _489
REMARK  205  A    between atoms: _492  and  _494
REMARK  206  A    between atoms: _494  and  _495
REMARK  207  A    between atoms: _497  and  _499
REMARK  208  A    between atoms: _499  and  _500
REMARK  209  A    between atoms: _499  and  _502
REMARK  210  A    between atoms: _502  and  _503
REMARK  211  A    between atoms: _506  and  _508
REMARK  212  A    between atoms: _508  and  _509
REMARK  213  A    between atoms: _508  and  _511
REMARK  214  A    between atoms: _511  and  _512
REMARK  215  A    between atoms: _515  and  _517
REMARK  216  A    between atoms: _517  and  _518
REMARK  217  A    between atoms: _517  and  _520
REMARK  218  A    between atoms: _520  and  _521
REMARK  219  A    between atoms: _524  and  _526
REMARK  220  A    between atoms: _526  and  _527
REMARK  221  A    between atoms: _526  and  _529
REMARK  222  A    between atoms: _529  and  _530
REMARK  223  A    between atoms: _533  and  _535
REMARK  224  A    between atoms: _535  and  _536
REMARK  225  A    between atoms: _535  and  _538
REMARK  226  A    between atoms: _538  and  _539
REMARK  227  A    between atoms: _544  and  _545
REMARK  228  A    between atoms: _547  and  _549
REMARK  229  A    between atoms: _549  and  _550
REMARK  230  A    between atoms: _549  and  _552
REMARK  231  A    between atoms: _555  and  _557
REMARK  232  A    between atoms: _557  and  _558
REMARK  233  A    between atoms: _560  and  _562
REMARK  234  A    between atoms: _562  and  _563
REMARK  235  A    between atoms: _562  and  _565
REMARK  236  A    between atoms: _565  and  _566
REMARK  237  A    between atoms: _572  and  _574
REMARK  238  A    between atoms: _574  and  _575
REMARK  239  A    between atoms: _574  and  _577
REMARK  240  A    between atoms: _577  and  _578
REMARK  241  A    between atoms: _584  and  _586
REMARK  242  A    between atoms: _586  and  _587
REMARK  243  A    between atoms: _589  and  _591
REMARK  244  A    between atoms: _591  and  _592
REMARK  245  A    between atoms: _594  and  _596
REMARK  246  A    between atoms: _596  and  _597
REMARK  247  A    between atoms: _596  and  _599
REMARK  248  A    between atoms: _599  and  _600
REMARK  249  A    between atoms: _600  and  _601
REMARK  250  A    between atoms: _606  and  _608
REMARK  251  A    between atoms: _608  and  _609
REMARK  252  A    between atoms: _608  and  _611
REMARK  253  A    between atoms: _611  and  _612
REMARK  254  A    between atoms: _614  and  _616
REMARK  255  A    between atoms: _616  and  _617
REMARK  256  A    between atoms: _619  and  _621
REMARK  257  A    between atoms: _621  and  _622
REMARK  258  A    between atoms: _621  and  _624
REMARK  259  A    between atoms: _624  and  _625
REMARK  260  A    between atoms: _628  and  _630
REMARK  261  A    between atoms: _630  and  _631
REMARK  262  A    between atoms: _633  and  _635
REMARK  263  A    between atoms: _635  and  _636
REMARK  264  A    between atoms: _635  and  _638
REMARK  265  A    between atoms: _638  and  _639
REMARK  266  A    between atoms: _642  and  _644
REMARK  267  A    between atoms: _644  and  _645
REMARK  268  A    between atoms: _644  and  _647
REMARK  269  A    between atoms: _647  and  _648
REMARK  270  A    between atoms: _653  and  _655
REMARK  271  A    between atoms: _655  and  _656
REMARK  272  A    between atoms: _655  and  _658
REMARK  273  A    between atoms: _658  and  _659
REMARK  274  A    between atoms: _662  and  _664
REMARK  275  A    between atoms: _664  and  _665
REMARK  276  A    between atoms: _664  and  _667
REMARK  277  A    between atoms: _667  and  _668
REMARK  278  A    between atoms: _674  and  _676
REMARK  279  A    between atoms: _676  and  _677
REMARK  280  A    between atoms: _679  and  _681
REMARK  281  A    between atoms: _681  and  _682
REMARK  282  A    between atoms: _681  and  _684
REMARK  283  A    between atoms: _684  and  _685
REMARK                            x       y       z     vdW  Elec       q    Type
REMARK                         _______ _______ _______ _____ _____    ______ ____
ROOT
ATOM      1  CB  GLN A   1      -1.277  39.678   3.520  0.00  0.00    +0.035 C 
ENDROOT
BRANCH   1   2
ATOM      2  CA  GLN A   1      -0.333  40.691   2.870  0.00  0.00    +0.134 C 
BRANCH   2   3
ATOM      3  N   GLN A   1      -0.350  40.562   1.408  0.00  0.00    -0.239 NA
ATOM      4  H   GLN A   1      -0.244  39.613   0.996  0.00  0.00    +0.142 HD
ENDBRANCH   2   3
BRANCH   2   5
ATOM      5  C   GLN A   1       1.072  40.497   3.418  0.00  0.00    +0.224 C 
ATOM      6  O   GLN A   1       1.245  40.456   4.638  0.00  0.00    -0.287 OA
ENDBRANCH   2   5
ENDBRANCH   1   2
BRANCH   1   7
ATOM      7  CG  GLN A   1      -2.594  40.321   3.959  0.00  0.00    +0.087 C 
BRANCH   7   8
ATOM      8  CD  GLN A   1      -3.089  39.724   5.278  0.00  0.00    +0.219 C 
ATOM      9  NE2 GLN A   1      -2.642  40.207   6.435  0.00  0.00    -0.329 N 
ATOM     10 HE21 GLN A   1      -2.977  39.802   7.332  0.00  0.00    +0.145 HD
ATOM     11 HE22 GLN A   1      -1.957  40.990   6.442  0.00  0.00    +0.145 HD
ATOM     12  OE1 GLN A   1      -3.964  38.723   5.287  0.00  0.00    -0.275 OA
ENDBRANCH   7   8
ENDBRANCH   1   7
TORSDOF 5
REMARK  Name = ../refined-set-2016/5er2/5er2_pocket.pdb
REMARK  283 active torsions:
REMARK  status: ('A' for Active; 'I' for Inactive)
REMARK    1  A    between atoms: _1  and  _3
REMARK    2  A    between atoms: _3  and  _4
REMARK    3  A    between atoms: _3  and  _6
REMARK    4  A    between atoms: _6  and  _7
REMARK    5  A    between atoms: _10  and  _12
REMARK    6  A    between atoms: _12  and  _13
REMARK    7  A    between atoms: _12  and  _15
REMARK    8  A    between atoms: _15  and  _16
REMARK    9  A    between atoms: _19  and  _21
REMARK   10  A    between atoms: _21  and  _22
REMARK   11  A    between atoms: _21  and  _24
REMARK   12  A    between atoms: _24  and  _25
REMARK   13  A    between atoms: _28  and  _30
REMARK   14  A    between atoms: _30  and  _31
REMARK   15  A    between atoms: _30  and  _33
REMARK   16  A    between atoms: _33  and  _34
REMARK   17  A    between atoms: _37  and  _39
REMARK   18  A    between atoms: _39  and  _40
REMARK   19  A    between atoms: _39  and  _42
REMARK   20  A    between atoms: _42  and  _43
REMARK   21  A    between atoms: _46  and  _48
REMARK   22  A    between atoms: _48  and  _49
REMARK   23  A    between atoms: _52  and  _54
REMARK   24  A    between atoms: _54  and  _55
REMARK   25  A    between atoms: _54  and  _57
REMARK   26  A    between atoms: _57  and  _58
REMARK   27  A    between atoms: _63  and  _64
REMARK   28  A    between atoms: _66  and  _68
REMARK   29  A    between atoms: _68  and  _69
REMARK   30  A    between atoms: _68  and  _71
REMARK   31  A    between atoms: _71  and  _72
REMARK   32  A    between atoms: _75  and  _77
REMARK   33  A    between atoms: _77  and  _78
REMARK   34  A    between atoms: _77  and  _80
REMARK   35  A    between atoms: _80  and  _81
REMARK   36  A    between atoms: _87  and  _89
REMARK   37  A    between atoms: _89  and  _90
REMARK   38  A    between atoms: _89  and  _92
REMARK   39  A    between atoms: _92  and  _93
REMARK   40  A    between atoms: _96  and  _98
REMARK   41  A    between atoms: _98  and  _99
REMARK   42  A    between atoms: _98  and  _101
REMARK   43  A    between atoms: _101  and  _102
REMARK   44  A    between atoms: _105  and  _107
REMARK   45  A    between atoms: _107  and  _108
REMARK   46  A    between atoms: _110  and  _112
REMARK   47  A    between atoms: _112  and  _113
REMARK   48  A    between atoms: _112  and  _115
REMARK   49  A    between atoms: _115  and  _116
REMARK   50  A    between atoms: _118  and  _120
REMARK   51  A    between atoms: _120  and  _121
REMARK   52  A    between atoms: _120  and  _123
REMARK   53  A    between atoms: _123  and  _124
REMARK   54  A    between atoms: _126  and  _128
REMARK   55  A    between atoms: _128  and  _129
REMARK   56  A    between atoms: _128  and  _131
REMARK   57  A    between atoms: _131  and  _132
REMARK   58  A    between atoms: _135  and  _137
REMARK   59  A    between atoms: _137  and  _138
REMARK   60  A    between atoms: _137  and  _140
REMARK   61  A    between atoms: _140  and  _141
REMARK   62  A    between atoms: _151  and  _153
REMARK   63  A    between atoms: _153  and  _154
REMARK   64  A    between atoms: _153  and  _156
REMARK   65  A    between atoms: _156  and  _157
REMARK   66  A    between atoms: _159  and  _161
REMARK   67  A    between atoms: _161  and  _162
REMARK   68  A    between atoms: _161  and  _164
REMARK   69  A    between atoms: _164  and  _165
REMARK   70  A    between atoms: _168  and  _170
REMARK   71  A    between atoms: _170  and  _171
REMARK   72  A    between atoms: _170  and  _173
REMARK   73  A    between atoms: _173  and  _174
REMARK   74  A    between atoms: _176  and  _178
REMARK   75  A    between atoms: _178  and  _179
REMARK   76  A    between atoms: _178  and  _181
REMARK   77  A    between atoms: _181  and  _182
REMARK   78  A    between atoms: _187  and  _188
REMARK   79  A    between atoms: _190  and  _192
REMARK   80  A    between atoms: _192  and  _193
REMARK   81  A    between atoms: _195  and  _197
REMARK   82  A    between atoms: _197  and  _198
REMARK   83  A    between atoms: _197  and  _200
REMARK   84  A    between atoms: _200  and  _201
REMARK   85  A    between atoms: _204  and  _206
REMARK   86  A    between atoms: _206  and  _207
REMARK   87  A    between atoms: _209  and  _211
REMARK   88  A    between atoms: _211  and  _212
REMARK   89  A    between atoms: _211  and  _214
REMARK   90  A    between atoms: _214  and  _215
REMARK   91  A    between atoms: _217  and  _219
REMARK   92  A    between atoms: _219  and  _220
REMARK   93  A    between atoms: _219  and  _222
REMARK   94  A    between atoms: _222  and  _223
REMARK   95  A    between atoms: _225  and  _227
REMARK   96  A    between atoms: _227  and  _228
REMARK   97  A    between atoms: _227  and  _230
REMARK   98  A    between atoms: _230  and  _231
REMARK   99  A    between atoms: _233  and  _235
REMARK  100  A    between atoms: _235  and  _236
REMARK  101  A    between atoms: _235  and  _238
REMARK  102  A    between atoms: _238  and  _239
REMARK  103  A    between atoms: _241  and  _243
REMARK  104  A    between atoms: _243  and  _244
REMARK  105  A    between atoms: _243  and  _246
REMARK  106  A    between atoms: _246  and  _247
REMARK  107  A    between atoms: _253  and  _255
REMARK  108  A    between atoms: _255  and  _256
REMARK  109  A    between atoms: _255  and  _258
REMARK  110  A    between atoms: _258  and  _259
REMARK  111  A    between atoms: _259  and  _260
REMARK  112  A    between atoms: _263  and  _265
REMARK  113  A    between atoms: _265  and  _266
REMARK  114  A    between atoms: _265  and  _268
REMARK  115  A    between atoms: _268  and  _269
REMARK  116  A    between atoms: _272  and  _274
REMARK  117  A    between atoms: _274  and  _275
REMARK  118  A    between atoms: _274  and  _277
REMARK  119  A    between atoms: _277  and  _278
REMARK  120  A    between atoms: _280  and  _282
REMARK  121  A    between atoms: _282  and  _283
REMARK  122  A    between atoms: _282  and  _285
REMARK  123  A    between atoms: _285  and  _286
REMARK  124  A    between atoms: _289  and  _291
REMARK  125  A    between atoms: _291  and  _292
REMARK  126  A    between atoms: _291  and  _294
REMARK  127  A    between atoms: _294  and  _295
REMARK  128  A    between atoms: _298  and  _300
REMARK  129  A    between atoms: _300  and  _301
REMARK  130  A    between atoms: _303  and  _305
REMARK  131  A    between atoms: _305  and  _306
REMARK  132  A    between atoms: _305  and  _308
REMARK  133  A    between atoms: _308  and  _309
REMARK  134  A    between atoms: _312  and  _314
REMARK  135  A    between atoms: _314  and  _315
REMARK  136  A    between atoms: _314  and  _317
REMARK  137  A    between atoms: _317  and  _318
REMARK  138  A    between atoms: _321  and  _323
REMARK  139  A    between atoms: _323  and  _324
REMARK  140  A    between atoms: _323  and  _326
REMARK  141  A    between atoms: _326  and  _327
REMARK  142  A    between atoms: _330  and  _332
REMARK  143  A    between atoms: _332  and  _333
REMARK  144  A    between atoms: _336  and  _338
REMARK  145  A    between atoms: _338  and  _339
REMARK  146  A    between atoms: _338  and  _341
REMARK  147  A    between atoms: _341  and  _342
REMARK  148  A    between atoms: _348  and  _350
REMARK  149  A    between atoms: _350  and  _351
REMARK  150  A    between atoms: _350  and  _353
REMARK  151  A    between atoms: _353  and  _354
REMARK  152  A    between atoms: _356  and  _358
REMARK  153  A    between atoms: _358  and  _359
REMARK  154  A    between atoms: _358  and  _361
REMARK  155  A    between atoms: _361  and  _362
REMARK  156  A    between atoms: _365  and  _367
REMARK  157  A    between atoms: _367  and  _368
REMARK  158  A    between atoms: _367  and  _370
REMARK  159  A    between atoms: _370  and  _371
REMARK  160  A    between atoms: _374  and  _376
REMARK  161  A    between atoms: _376  and  _377
REMARK  162  A    between atoms: _376  and  _379
REMARK  163  A    between atoms: _379  and  _380
REMARK  164  A    between atoms: _385  and  _387
REMARK  165  A    between atoms: _387  and  _388
REMARK  166  A    between atoms: _387  and  _390
REMARK  167  A    between atoms: _390  and  _391
REMARK  168  A    between atoms: _394  and  _396
REMARK  169  A    between atoms: _396  and  _397
REMARK  170  A    between atoms: _396  and  _399
REMARK  171  A    between atoms: _402  and  _404
REMARK  172  A    between atoms: _404  and  _405
REMARK  173  A    between atoms: _404  and  _407
REMARK  174  A    between atoms: _407  and  _408
REMARK  175  A    between atoms: _408  and  _409
REMARK  176  A    between atoms: _414  and  _416
REMARK  177  A    between atoms: _416  and  _417
REMARK  178  A    between atoms: _416  and  _419
REMARK  179  A    between atoms: _419  and  _420
REMARK  180  A    between atoms: _420  and  _421
REMARK  181  A    between atoms: _426  and  _428
REMARK  182  A    between atoms: _428  and  _429
REMARK  183  A    between atoms: _428  and  _431
REMARK  184  A    between atoms: _431  and  _432
REMARK  185  A    between atoms: _438  and  _440
REMARK  186  A    between atoms: _440  and  _441
REMARK  187  A    between atoms: _440  and  _443
REMARK  188  A    between atoms: _443  and  _444
REMARK  189  A    between atoms: _454  and  _456
REMARK  190  A    between atoms: _456  and  _457
REMARK  191  A    between atoms: _459  and  _461
REMARK  192  A    between atoms: _461  and  _462
REMARK  193  A    between atoms: _461  and  _464
REMARK  194  A    between atoms: _464  and  _465
REMARK  195  A    between atoms: _468  and  _470
REMARK  196  A    between atoms: _470  and  _471
REMARK  197  A    between atoms: _474  and  _476
REMARK  198  A    between atoms: _476  and  _477
REMARK  199  A    between atoms: _476  and  _479
REMARK  200  A    between atoms: _479  and  _480
REMARK  201  A    between atoms: _483  and  _485
REMARK  202  A    between atoms: _485  and  _486
REMARK  203  A    between atoms: _485  and  _488
REMARK  204  A    between atoms: _488  and  _489
REMARK  205  A    between atoms: _492  and  _494
REMARK  206  A    between atoms: _494  and  _495
REMARK  207  A    between atoms: _497  and  _499
REMARK  208  A    between atoms: _499  and  _500
REMARK  209  A    between atoms: _499  and  _502
REMARK  210  A    between atoms: _502  and  _503
REMARK  211  A    between atoms: _506  and  _508
REMARK  212  A    between atoms: _508  and  _509
REMARK  213  A    between atoms: _508  and  _511
REMARK  214  A    between atoms: _511  and  _512
REMARK  215  A    between atoms: _515  and  _517
REMARK  216  A    between atoms: _517  and  _518
REMARK  217  A    between atoms: _517  and  _520
REMARK  218  A    between atoms: _520  and  _521
REMARK  219  A    between atoms: _524  and  _526
REMARK  220  A    between atoms: _526  and  _527
REMARK  221  A    between atoms: _526  and  _529
REMARK  222  A    between atoms: _529  and  _530
REMARK  223  A    between atoms: _533  and  _535
REMARK  224  A    between atoms: _535  and  _536
REMARK  225  A    between atoms: _535  and  _538
REMARK  226  A    between atoms: _538  and  _539
REMARK  227  A    between atoms: _544  and  _545
REMARK  228  A    between atoms: _547  and  _549
REMARK  229  A    between atoms: _549  and  _550
REMARK  230  A    between atoms: _549  and  _552
REMARK  231  A    between atoms: _555  and  _557
REMARK  232  A    between atoms: _557  and  _558
REMARK  233  A    between atoms: _560  and  _562
REMARK  234  A    between atoms: _562  and  _563
REMARK  235  A    between atoms: _562  and  _565
REMARK  236  A    between atoms: _565  and  _566
REMARK  237  A    between atoms: _572  and  _574
REMARK  238  A    between atoms: _574  and  _575
REMARK  239  A    between atoms: _574  and  _577
REMARK  240  A    between atoms: _577  and  _578
REMARK  241  A    between atoms: _584  and  _586
REMARK  242  A    between atoms: _586  and  _587
REMARK  243  A    between atoms: _589  and  _591
REMARK  244  A    between atoms: _591  and  _592
REMARK  245  A    between atoms: _594  and  _596
REMARK  246  A    between atoms: _596  and  _597
REMARK  247  A    between atoms: _596  and  _599
REMARK  248  A    between atoms: _599  and  _600
REMARK  249  A    between atoms: _600  and  _601
REMARK  250  A    between atoms: _606  and  _608
REMARK  251  A    between atoms: _608  and  _609
REMARK  252  A    between atoms: _608  and  _611
REMARK  253  A    between atoms: _611  and  _612
REMARK  254  A    between atoms: _614  and  _616
REMARK  255  A    between atoms: _616  and  _617
REMARK  256  A    between atoms: _619  and  _621
REMARK  257  A    between atoms: _621  and  _622
REMARK  258  A    between atoms: _621  and  _624
REMARK  259  A    between atoms: _624  and  _625
REMARK  260  A    between atoms: _628  and  _630
REMARK  261  A    between atoms: _630  and  _631
REMARK  262  A    between atoms: _633  and  _635
REMARK  263  A    between atoms: _635  and  _636
REMARK  264  A    between atoms: _635  and  _638
REMARK  265  A    between atoms: _638  and  _639
REMARK  266  A    between atoms: _642  and  _644
REMARK  267  A    between atoms: _644  and  _645
REMARK  268  A    between atoms: _644  and  _647
REMARK  269  A    between atoms: _647  and  _648
REMARK  270  A    between atoms: _653  and  _655
REMARK  271  A    between atoms: _655  and  _656
REMARK  272  A    between atoms: _655  and  _658
REMARK  273  A    between atoms: _658  and  _659
REMARK  274  A    between atoms: _662  and  _664
REMARK  275  A    between atoms: _664  and  _665
REMARK  276  A    between atoms: _664  and  _667
REMARK  277  A    between atoms: _667  and  _668
REMARK  278  A    between atoms: _674  and  _676
REMARK  279  A    between atoms: _676  and  _677
REMARK  280  A    between atoms: _679  and  _681
REMARK  281  A    between atoms: _681  and  _682
REMARK  282  A    between atoms: _681  and  _684
REMARK  283  A    between atoms: _684  and  _685
REMARK                            x       y       z     vdW  Elec       q    Type
REMARK                         _______ _______ _______ _____ _____    ______ ____
ROOT
ATOM      1  C   PHE A   1       3.838  35.795   2.309  0.00  0.00    +0.239 C 
ATOM      2  N   TRP A   2       4.450  34.654   2.566  0.00  0.00    -0.298 N 
ATOM      3  H   TRP A   2       4.885  34.514   3.500  0.00  0.00    +0.150 HD
ATOM      4  O   PHE A   1       3.593  36.195   1.176  0.00  0.00    -0.274 OA
ENDROOT
BRANCH   1   5
ATOM      5  CA  PHE A   1       3.433  36.594   3.542  0.00  0.00    +0.149 C 
BRANCH   5   6
ATOM      6  N   PHE A   1       3.114  37.980   3.185  0.00  0.00    -0.238 NA
ATOM      7  H   PHE A   1       2.171  38.185   2.797  0.00  0.00    +0.142 HD
ENDBRANCH   5   6
BRANCH   5   8
ATOM      8  CB  PHE A   1       2.232  35.915   4.199  0.00  0.00    +0.053 C 
BRANCH   8   9
ATOM      9  CG  PHE A   1       1.939  36.457   5.593  0.00  0.00    -0.020 A 
ATOM     10  CD2 PHE A   1       2.906  36.418   6.590  0.00  0.00    -0.004 A 
ATOM     11  CE2 PHE A   1       2.570  36.929   7.836  0.00  0.00    -0.000 A 
ATOM     12  CZ  PHE A   1       1.312  37.461   8.086  0.00  0.00    -0.000 A 
ATOM     13  CE1 PHE A   1       0.354  37.493   7.078  0.00  0.00    -0.000 A 
ATOM     14  CD1 PHE A   1       0.674  36.985   5.826  0.00  0.00    -0.004 A 
ENDBRANCH   8   9
ENDBRANCH   5   8
ENDBRANCH   1   5
BRANCH   2  15
ATOM     15  CA  TRP A   2       4.536  33.575   1.572  0.00  0.00    +0.141 C 
BRANCH  15  16
ATOM     16  C   TRP A   2       3.178  32.898   1.407  0.00  0.00    +0.227 C 
ATOM     17  O   TRP A   2       3.042  31.804   1.952  0.00  0.00    -0.286 OA
ENDBRANCH  15  16
BRANCH  15  18
ATOM     18  CB  TRP A   2       5.564  32.531   1.997  0.00  0.00    +0.056 C 
BRANCH  18  19
ATOM     19  CG  TRP A   2       6.957  33.113   1.810  0.00  0.00    -0.002 A 
ATOM     20  CD1 TRP A   2       7.668  33.690   2.792  0.00  0.00    +0.068 A 
ATOM     21  NE1 TRP A   2       8.904  34.101   2.204  0.00  0.00    -0.352 N 
ATOM     22  HE1 TRP A   2       9.680  34.583   2.701  0.00  0.00    +0.166 HD
ATOM     23  CE2 TRP A   2       8.899  33.771   0.937  0.00  0.00    +0.056 A 
ATOM     24  CZ2 TRP A   2       9.880  33.984   0.034  0.00  0.00    +0.017 A 
ATOM     25  CH2 TRP A   2       9.682  33.557  -1.272  0.00  0.00    +0.001 A 
ATOM     26  CZ3 TRP A   2       8.493  32.929  -1.617  0.00  0.00    +0.000 A 
ATOM     27  CE3 TRP A   2       7.488  32.713  -0.682  0.00  0.00    +0.001 A 
ATOM     28  CD2 TRP A   2       7.694  33.144   0.628  0.00  0.00    +0.013 A 
ENDBRANCH  18  19
ENDBRANCH  15  18
ENDBRANCH   2  15
TORSDOF 8
REMARK  Name = ../refined-set-2016/5er2/5er2_pocket.pdb
REMARK  283 active torsions:
REMARK  status: ('A' for Active; 'I' for Inactive)
REMARK    1  A    between atoms: _1  and  _3
REMARK    2  A    between atoms: _3  and  _4
REMARK    3  A    between atoms: _3  and  _6
REMARK    4  A    between atoms: _6  and  _7
REMARK    5  A    between atoms: _10  and  _12
REMARK    6  A    between atoms: _12  and  _13
REMARK    7  A    between atoms: _12  and  _15
REMARK    8  A    between atoms: _15  and  _16
REMARK    9  A    between atoms: _19  and  _21
REMARK   10  A    between atoms: _21  and  _22
REMARK   11  A    between atoms: _21  and  _24
REMARK   12  A    between atoms: _24  and  _25
REMARK   13  A    between atoms: _28  and  _30
REMARK   14  A    between atoms: _30  and  _31
REMARK   15  A    between atoms: _30  and  _33
REMARK   16  A    between atoms: _33  and  _34
REMARK   17  A    between atoms: _37  and  _39
REMARK   18  A    between atoms: _39  and  _40
REMARK   19  A    between atoms: _39  and  _42
REMARK   20  A    between atoms: _42  and  _43
REMARK   21  A    between atoms: _46  and  _48
REMARK   22  A    between atoms: _48  and  _49
REMARK   23  A    between atoms: _52  and  _54
REMARK   24  A    between atoms: _54  and  _55
REMARK   25  A    between atoms: _54  and  _57
REMARK   26  A    between atoms: _57  and  _58
REMARK   27  A    between atoms: _63  and  _64
REMARK   28  A    between atoms: _66  and  _68
REMARK   29  A    between atoms: _68  and  _69
REMARK   30  A    between atoms: _68  and  _71
REMARK   31  A    between atoms: _71  and  _72
REMARK   32  A    between atoms: _75  and  _77
REMARK   33  A    between atoms: _77  and  _78
REMARK   34  A    between atoms: _77  and  _80
REMARK   35  A    between atoms: _80  and  _81
REMARK   36  A    between atoms: _87  and  _89
REMARK   37  A    between atoms: _89  and  _90
REMARK   38  A    between atoms: _89  and  _92
REMARK   39  A    between atoms: _92  and  _93
REMARK   40  A    between atoms: _96  and  _98
REMARK   41  A    between atoms: _98  and  _99
REMARK   42  A    between atoms: _98  and  _101
REMARK   43  A    between atoms: _101  and  _102
REMARK   44  A    between atoms: _105  and  _107
REMARK   45  A    between atoms: _107  and  _108
REMARK   46  A    between atoms: _110  and  _112
REMARK   47  A    between atoms: _112  and  _113
REMARK   48  A    between atoms: _112  and  _115
REMARK   49  A    between atoms: _115  and  _116
REMARK   50  A    between atoms: _118  and  _120
REMARK   51  A    between atoms: _120  and  _121
REMARK   52  A    between atoms: _120  and  _123
REMARK   53  A    between atoms: _123  and  _124
REMARK   54  A    between atoms: _126  and  _128
REMARK   55  A    between atoms: _128  and  _129
REMARK   56  A    between atoms: _128  and  _131
REMARK   57  A    between atoms: _131  and  _132
REMARK   58  A    between atoms: _135  and  _137
REMARK   59  A    between atoms: _137  and  _138
REMARK   60  A    between atoms: _137  and  _140
REMARK   61  A    between atoms: _140  and  _141
REMARK   62  A    between atoms: _151  and  _153
REMARK   63  A    between atoms: _153  and  _154
REMARK   64  A    between atoms: _153  and  _156
REMARK   65  A    between atoms: _156  and  _157
REMARK   66  A    between atoms: _159  and  _161
REMARK   67  A    between atoms: _161  and  _162
REMARK   68  A    between atoms: _161  and  _164
REMARK   69  A    between atoms: _164  and  _165
REMARK   70  A    between atoms: _168  and  _170
REMARK   71  A    between atoms: _170  and  _171
REMARK   72  A    between atoms: _170  and  _173
REMARK   73  A    between atoms: _173  and  _174
REMARK   74  A    between atoms: _176  and  _178
REMARK   75  A    between atoms: _178  and  _179
REMARK   76  A    between atoms: _178  and  _181
REMARK   77  A    between atoms: _181  and  _182
REMARK   78  A    between atoms: _187  and  _188
REMARK   79  A    between atoms: _190  and  _192
REMARK   80  A    between atoms: _192  and  _193
REMARK   81  A    between atoms: _195  and  _197
REMARK   82  A    between atoms: _197  and  _198
REMARK   83  A    between atoms: _197  and  _200
REMARK   84  A    between atoms: _200  and  _201
REMARK   85  A    between atoms: _204  and  _206
REMARK   86  A    between atoms: _206  and  _207
REMARK   87  A    between atoms: _209  and  _211
REMARK   88  A    between atoms: _211  and  _212
REMARK   89  A    between atoms: _211  and  _214
REMARK   90  A    between atoms: _214  and  _215
REMARK   91  A    between atoms: _217  and  _219
REMARK   92  A    between atoms: _219  and  _220
REMARK   93  A    between atoms: _219  and  _222
REMARK   94  A    between atoms: _222  and  _223
REMARK   95  A    between atoms: _225  and  _227
REMARK   96  A    between atoms: _227  and  _228
REMARK   97  A    between atoms: _227  and  _230
REMARK   98  A    between atoms: _230  and  _231
REMARK   99  A    between atoms: _233  and  _235
REMARK  100  A    between atoms: _235  and  _236
REMARK  101  A    between atoms: _235  and  _238
REMARK  102  A    between atoms: _238  and  _239
REMARK  103  A    between atoms: _241  and  _243
REMARK  104  A    between atoms: _243  and  _244
REMARK  105  A    between atoms: _243  and  _246
REMARK  106  A    between atoms: _246  and  _247
REMARK  107  A    between atoms: _253  and  _255
REMARK  108  A    between atoms: _255  and  _256
REMARK  109  A    between atoms: _255  and  _258
REMARK  110  A    between atoms: _258  and  _259
REMARK  111  A    between atoms: _259  and  _260
REMARK  112  A    between atoms: _263  and  _265
REMARK  113  A    between atoms: _265  and  _266
REMARK  114  A    between atoms: _265  and  _268
REMARK  115  A    between atoms: _268  and  _269
REMARK  116  A    between atoms: _272  and  _274
REMARK  117  A    between atoms: _274  and  _275
REMARK  118  A    between atoms: _274  and  _277
REMARK  119  A    between atoms: _277  and  _278
REMARK  120  A    between atoms: _280  and  _282
REMARK  121  A    between atoms: _282  and  _283
REMARK  122  A    between atoms: _282  and  _285
REMARK  123  A    between atoms: _285  and  _286
REMARK  124  A    between atoms: _289  and  _291
REMARK  125  A    between atoms: _291  and  _292
REMARK  126  A    between atoms: _291  and  _294
REMARK  127  A    between atoms: _294  and  _295
REMARK  128  A    between atoms: _298  and  _300
REMARK  129  A    between atoms: _300  and  _301
REMARK  130  A    between atoms: _303  and  _305
REMARK  131  A    between atoms: _305  and  _306
REMARK  132  A    between atoms: _305  and  _308
REMARK  133  A    between atoms: _308  and  _309
REMARK  134  A    between atoms: _312  and  _314
REMARK  135  A    between atoms: _314  and  _315
REMARK  136  A    between atoms: _314  and  _317
REMARK  137  A    between atoms: _317  and  _318
REMARK  138  A    between atoms: _321  and  _323
REMARK  139  A    between atoms: _323  and  _324
REMARK  140  A    between atoms: _323  and  _326
REMARK  141  A    between atoms: _326  and  _327
REMARK  142  A    between atoms: _330  and  _332
REMARK  143  A    between atoms: _332  and  _333
REMARK  144  A    between atoms: _336  and  _338
REMARK  145  A    between atoms: _338  and  _339
REMARK  146  A    between atoms: _338  and  _341
REMARK  147  A    between atoms: _341  and  _342
REMARK  148  A    between atoms: _348  and  _350
REMARK  149  A    between atoms: _350  and  _351
REMARK  150  A    between atoms: _350  and  _353
REMARK  151  A    between atoms: _353  and  _354
REMARK  152  A    between atoms: _356  and  _358
REMARK  153  A    between atoms: _358  and  _359
REMARK  154  A    between atoms: _358  and  _361
REMARK  155  A    between atoms: _361  and  _362
REMARK  156  A    between atoms: _365  and  _367
REMARK  157  A    between atoms: _367  and  _368
REMARK  158  A    between atoms: _367  and  _370
REMARK  159  A    between atoms: _370  and  _371
REMARK  160  A    between atoms: _374  and  _376
REMARK  161  A    between atoms: _376  and  _377
REMARK  162  A    between atoms: _376  and  _379
REMARK  163  A    between atoms: _379  and  _380
REMARK  164  A    between atoms: _385  and  _387
REMARK  165  A    between atoms: _387  and  _388
REMARK  166  A    between atoms: _387  and  _390
REMARK  167  A    between atoms: _390  and  _391
REMARK  168  A    between atoms: _394  and  _396
REMARK  169  A    between atoms: _396  and  _397
REMARK  170  A    between atoms: _396  and  _399
REMARK  171  A    between atoms: _402  and  _404
REMARK  172  A    between atoms: _404  and  _405
REMARK  173  A    between atoms: _404  and  _407
REMARK  174  A    between atoms: _407  and  _408
REMARK  175  A    between atoms: _408  and  _409
REMARK  176  A    between atoms: _414  and  _416
REMARK  177  A    between atoms: _416  and  _417
REMARK  178  A    between atoms: _416  and  _419
REMARK  179  A    between atoms: _419  and  _420
REMARK  180  A    between atoms: _420  and  _421
REMARK  181  A    between atoms: _426  and  _428
REMARK  182  A    between atoms: _428  and  _429
REMARK  183  A    between atoms: _428  and  _431
REMARK  184  A    between atoms: _431  and  _432
REMARK  185  A    between atoms: _438  and  _440
REMARK  186  A    between atoms: _440  and  _441
REMARK  187  A    between atoms: _440  and  _443
REMARK  188  A    between atoms: _443  and  _444
REMARK  189  A    between atoms: _454  and  _456
REMARK  190  A    between atoms: _456  and  _457
REMARK  191  A    between atoms: _459  and  _461
REMARK  192  A    between atoms: _461  and  _462
REMARK  193  A    between atoms: _461  and  _464
REMARK  194  A    between atoms: _464  and  _465
REMARK  195  A    between atoms: _468  and  _470
REMARK  196  A    between atoms: _470  and  _471
REMARK  197  A    between atoms: _474  and  _476
REMARK  198  A    between atoms: _476  and  _477
REMARK  199  A    between atoms: _476  and  _479
REMARK  200  A    between atoms: _479  and  _480
REMARK  201  A    between atoms: _483  and  _485
REMARK  202  A    between atoms: _485  and  _486
REMARK  203  A    between atoms: _485  and  _488
REMARK  204  A    between atoms: _488  and  _489
REMARK  205  A    between atoms: _492  and  _494
REMARK  206  A    between atoms: _494  and  _495
REMARK  207  A    between atoms: _497  and  _499
REMARK  208  A    between atoms: _499  and  _500
REMARK  209  A    between atoms: _499  and  _502
REMARK  210  A    between atoms: _502  and  _503
REMARK  211  A    between atoms: _506  and  _508
REMARK  212  A    between atoms: _508  and  _509
REMARK  213  A    between atoms: _508  and  _511
REMARK  214  A    between atoms: _511  and  _512
REMARK  215  A    between atoms: _515  and  _517
REMARK  216  A    between atoms: _517  and  _518
REMARK  217  A    between atoms: _517  and  _520
REMARK  218  A    between atoms: _520  and  _521
REMARK  219  A    between atoms: _524  and  _526
REMARK  220  A    between atoms: _526  and  _527
REMARK  221  A    between atoms: _526  and  _529
REMARK  222  A    between atoms: _529  and  _530
REMARK  223  A    between atoms: _533  and  _535
REMARK  224  A    between atoms: _535  and  _536
REMARK  225  A    between atoms: _535  and  _538
REMARK  226  A    between atoms: _538  and  _539
REMARK  227  A    between atoms: _544  and  _545
REMARK  228  A    between atoms: _547  and  _549
REMARK  229  A    between atoms: _549  and  _550
REMARK  230  A    between atoms: _549  and  _552
REMARK  231  A    between atoms: _555  and  _557
REMARK  232  A    between atoms: _557  and  _558
REMARK  233  A    between atoms: _560  and  _562
REMARK  234  A    between atoms: _562  and  _563
REMARK  235  A    between atoms: _562  and  _565
REMARK  236  A    between atoms: _565  and  _566
REMARK  237  A    between atoms: _572  and  _574
REMARK  238  A    between atoms: _574  and  _575
REMARK  239  A    between atoms: _574  and  _577
REMARK  240  A    between atoms: _577  and  _578
REMARK  241  A    between atoms: _584  and  _586
REMARK  242  A    between atoms: _586  and  _587
REMARK  243  A    between atoms: _589  and  _591
REMARK  244  A    between atoms: _591  and  _592
REMARK  245  A    between atoms: _594  and  _596
REMARK  246  A    between atoms: _596  and  _597
REMARK  247  A    between atoms: _596  and  _599
REMARK  248  A    between atoms: _599  and  _600
REMARK  249  A    between atoms: _600  and  _601
REMARK  250  A    between atoms: _606  and  _608
REMARK  251  A    between atoms: _608  and  _609
REMARK  252  A    between atoms: _608  and  _611
REMARK  253  A    between atoms: _611  and  _612
REMARK  254  A    between atoms: _614  and  _616
REMARK  255  A    between atoms: _616  and  _617
REMARK  256  A    between atoms: _619  and  _621
REMARK  257  A    between atoms: _621  and  _622
REMARK  258  A    between atoms: _621  and  _624
REMARK  259  A    between atoms: _624  and  _625
REMARK  260  A    between atoms: _628  and  _630
REMARK  261  A    between atoms: _630  and  _631
REMARK  262  A    between atoms: _633  and  _635
REMARK  263  A    between atoms: _635  and  _636
REMARK  264  A    between atoms: _635  and  _638
REMARK  265  A    between atoms: _638  and  _639
REMARK  266  A    between atoms: _642  and  _644
REMARK  267  A    between atoms: _644  and  _645
REMARK  268  A    between atoms: _644  and  _647
REMARK  269  A    between atoms: _647  and  _648
REMARK  270  A    between atoms: _653  and  _655
REMARK  271  A    between atoms: _655  and  _656
REMARK  272  A    between atoms: _655  and  _658
REMARK  273  A    between atoms: _658  and  _659
REMARK  274  A    between atoms: _662  and  _664
REMARK  275  A    between atoms: _664  and  _665
REMARK  276  A    between atoms: _664  and  _667
REMARK  277  A    between atoms: _667  and  _668
REMARK  278  A    between atoms: _674  and  _676
REMARK  279  A    between atoms: _676  and  _677
REMARK  280  A    between atoms: _679  and  _681
REMARK  281  A    between atoms: _681  and  _682
REMARK  282  A    between atoms: _681  and  _684
REMARK  283  A    between atoms: _684  and  _685
REMARK                            x       y       z     vdW  Elec       q    Type
REMARK                         _______ _______ _______ _____ _____    ______ ____
ROOT
ATOM      1  CA  THR A   7       4.231  27.969  13.347  0.00  0.00    +0.176 C 
ENDROOT
BRANCH   1   2
ATOM      2  C   THR A   7       4.313  26.453  13.393  0.00  0.00    +0.243 C 
ATOM      3  N   THR A   8       3.984  25.848  14.519  0.00  0.00    -0.295 N 
ATOM      4  H   THR A   8       3.486  26.391  15.253  0.00  0.00    +0.150 HD
ATOM      5  O   THR A   7       4.696  25.826  12.407  0.00  0.00    -0.273 OA
BRANCH   3   6
ATOM      6  CA  THR A   8       4.297  24.429  14.774  0.00  0.00    +0.176 C 
BRANCH   6   7
ATOM      7  C   THR A   8       3.396  23.534  13.935  0.00  0.00    +0.243 C 
ATOM      8  N   LEU A   9       2.120  23.868  14.003  0.00  0.00    -0.297 N 
ATOM      9  H   LEU A   9       1.843  24.801  14.371  0.00  0.00    +0.150 HD
ATOM     10  O   THR A   8       3.831  22.595  13.276  0.00  0.00    -0.273 OA
BRANCH   8  11
ATOM     11  CA  LEU A   9       1.095  22.916  13.557  0.00  0.00    +0.149 C 
BRANCH  11  12
ATOM     12  C   LEU A   9       0.554  23.311  12.179  0.00  0.00    +0.241 C 
ATOM     13  N   LEU A  10      -0.376  22.494  11.733  0.00  0.00    -0.297 N 
ATOM     14  H   LEU A  10      -0.665  21.689  12.325  0.00  0.00    +0.150 HD
ATOM     15  O   LEU A   9       0.949  24.296  11.564  0.00  0.00    -0.273 OA
BRANCH  13  16
ATOM     16  CA  LEU A  10      -1.022  22.684  10.420  0.00  0.00    +0.149 C 
BRANCH  16  17
ATOM     17  C   LEU A  10      -2.468  23.148  10.627  0.00  0.00    +0.241 C 
ATOM     18  O   LEU A  10      -3.272  22.388  11.162  0.00  0.00    -0.273 OA
ATOM     19  N   TYR A  11      -2.758  24.415  10.315  0.00  0.00    -0.298 N 
ATOM     20  H   TYR A  11      -2.038  25.029   9.882  0.00  0.00    +0.150 HD
BRANCH  19  21
ATOM     21  CA  TYR A  11      -4.107  24.930  10.591  0.00  0.00    +0.141 C 
BRANCH  21  22
ATOM     22  C   TYR A  11      -4.871  25.097   9.281  0.00  0.00    +0.227 C 
ATOM     23  O   TYR A  11      -4.488  25.899   8.419  0.00  0.00    -0.286 OA
ENDBRANCH  21  22
BRANCH  21  24
ATOM     24  CB  TYR A  11      -4.008  26.271  11.309  0.00  0.00    +0.054 C 
BRANCH  24  25
ATOM     25  CG  TYR A  11      -3.419  26.127  12.707  0.00  0.00    -0.020 A 
ATOM     26  CD2 TYR A  11      -4.267  25.954  13.803  0.00  0.00    -0.001 A 
ATOM     27  CE2 TYR A  11      -3.728  25.819  15.085  0.00  0.00    +0.036 A 
ATOM     28  CZ  TYR A  11      -2.341  25.855  15.266  0.00  0.00    +0.134 A 
ATOM     29  CE1 TYR A  11      -1.492  26.025  14.165  0.00  0.00    +0.036 A 
ATOM     30  CD1 TYR A  11      -2.032  26.159  12.883  0.00  0.00    -0.001 A 
BRANCH  28  31
ATOM     31  OH  TYR A  11      -1.815  25.726  16.513  0.00  0.00    -0.506 OA
ATOM     32  HH  TYR A  11      -2.548  25.615  17.169  0.00  0.00    +0.292 HD
ENDBRANCH  28  31
ENDBRANCH  24  25
ENDBRANCH  21  24
ENDBRANCH  19  21
ENDBRANCH  16  17
BRANCH  16  33
ATOM     33  CB  LEU A  10      -1.004  21.387   9.636  0.00  0.00    +0.029 C 
BRANCH  33  34
ATOM     34  CG  LEU A  10      -1.731  21.383   8.308  0.00  0.00    +0.002 C 
ATOM     35  CD2 LEU A  10      -1.467  20.078   7.567  0.00  0.00    +0.000 C 
ATOM     36  CD1 LEU A  10      -1.473  22.605   7.444  0.00  0.00    +0.000 C 
ENDBRANCH  33  34
ENDBRANCH  16  33
ENDBRANCH  13  16
ENDBRANCH  11  12
BRANCH  11  37
ATOM     37  CB  LEU A   9      -0.055  22.850  14.545  0.00  0.00    +0.029 C 
BRANCH  37  38
ATOM     38  CG  LEU A   9       0.323  22.355  15.927  0.00  0.00    +0.002 C 
ATOM     39  CD2 LEU A   9      -0.908  22.243  16.812  0.00  0.00    +0.000 C 
ATOM     40  CD1 LEU A   9       1.148  21.080  15.931  0.00  0.00    +0.000 C 
ENDBRANCH  37  38
ENDBRANCH  11  37
ENDBRANCH   8  11
ENDBRANCH   6   7
BRANCH   6  41
ATOM     41  CB  THR A   8       4.082  24.121  16.251  0.00  0.00    +0.137 C 
ATOM     42  CG2 THR A   8       4.500  22.710  16.537  0.00  0.00    +0.034 C 
BRANCH  41  43
ATOM     43  OG1 THR A   8       4.871  25.004  17.051  0.00  0.00    -0.382 OA
ATOM     44  HG1 THR A   8       5.828  24.884  16.827  0.00  0.00    +0.210 HD
ENDBRANCH  41  43
ENDBRANCH   6  41
ENDBRANCH   3   6
ENDBRANCH   1   2
BRANCH   1  47
ATOM     45  C   GLY A   6       6.282  29.266  13.347  0.00  0.00    +0.243 C 
ATOM     46  O   GLY A   6       6.087  29.576  14.521  0.00  0.00    -0.273 OA
ATOM     47  N   THR A   7       5.414  28.533  12.675  0.00  0.00    -0.295 N 
ATOM     48  H   THR A   7       5.567  28.352  11.662  0.00  0.00    +0.150 HD
BRANCH  45  49
ATOM     49  CA  GLY A   6       7.552  29.736  12.656  0.00  0.00    +0.176 C 
BRANCH  49  52
ATOM     50  C   THR A   5       8.122  28.175  10.909  0.00  0.00    +0.243 C 
ATOM     51  O   THR A   5       8.539  27.385  11.756  0.00  0.00    -0.273 OA
ATOM     52  N   GLY A   6       7.560  29.322  11.245  0.00  0.00    -0.295 N 
ATOM     53  H   GLY A   6       7.127  29.927  10.518  0.00  0.00    +0.150 HD
BRANCH  50  54
ATOM     54  CA  THR A   5       8.257  27.851   9.432  0.00  0.00    +0.176 C 
BRANCH  54  57
ATOM     55  C   ASP A   4       6.001  28.529   8.780  0.00  0.00    +0.241 C 
ATOM     56  O   ASP A   4       5.493  27.771   9.615  0.00  0.00    -0.273 OA
ATOM     57  N   THR A   5       7.324  28.652   8.629  0.00  0.00    -0.295 N 
ATOM     58  H   THR A   5       7.698  29.326   7.931  0.00  0.00    +0.150 HD
BRANCH  55  59
ATOM     59  CA  ASP A   4       5.150  29.553   8.039  0.00  0.00    +0.160 C 
BRANCH  59  61
ATOM     60  C   ALA A   3       4.671  29.449   5.663  0.00  0.00    +0.241 C 
ATOM     61  N   ASP A   4       4.515  28.946   6.866  0.00  0.00    -0.297 N 
ATOM     62  H   ASP A   4       3.927  28.097   6.989  0.00  0.00    +0.150 HD
ATOM     63  O   ALA A   3       5.387  30.426   5.421  0.00  0.00    -0.273 OA
BRANCH  60  64
ATOM     64  CA  ALA A   3       3.889  28.748   4.559  0.00  0.00    +0.149 C 
ATOM     65  CB  ALA A   3       4.811  28.399   3.392  0.00  0.00    +0.031 C 
BRANCH  64  68
ATOM     66  C   ILE A   2       1.675  29.729   4.731  0.00  0.00    +0.241 C 
ATOM     67  O   ILE A   2       1.350  29.000   5.674  0.00  0.00    -0.273 OA
ATOM     68  N   ALA A   3       2.834  29.661   4.114  0.00  0.00    -0.297 N 
ATOM     69  H   ALA A   3       3.006  30.271   3.289  0.00  0.00    +0.150 HD
BRANCH  66  70
ATOM     70  CA  ILE A   2       0.724  30.779   4.174  0.00  0.00    +0.148 C 
BRANCH  70  72
ATOM     71  C   GLY A   1      -1.380  30.230   3.129  0.00  0.00    +0.240 C 
ATOM     72  N   ILE A   2      -0.652  30.278   4.223  0.00  0.00    -0.297 N 
ATOM     73  H   ILE A   2      -1.055  29.959   5.127  0.00  0.00    +0.150 HD
ATOM     74  O   GLY A   1      -0.971  30.653   2.045  0.00  0.00    -0.274 OA
BRANCH  71  75
ATOM     75  CA  GLY A   1      -2.781  29.647   3.282  0.00  0.00    +0.169 C 
BRANCH  75  76
ATOM     76  N   GLY A   1      -3.501  29.740   2.003  0.00  0.00    -0.236 NA
ATOM     77  H   GLY A   1      -2.969  29.771   1.110  0.00  0.00    +0.142 HD
ENDBRANCH  75  76
ENDBRANCH  71  75
ENDBRANCH  70  72
BRANCH  70  78
ATOM     78  CB  ILE A   2       0.884  32.082   4.966  0.00  0.00    +0.027 C 
ATOM     79  CG2 ILE A   2      -0.287  33.045   4.782  0.00  0.00    +0.002 C 
BRANCH  78  80
ATOM     80  CG1 ILE A   2       1.026  31.867   6.473  0.00  0.00    +0.002 C 
ATOM     81  CD1 ILE A   2       2.078  32.783   7.107  0.00  0.00    +0.000 C 
ENDBRANCH  78  80
ENDBRANCH  70  78
ENDBRANCH  66  70
ENDBRANCH  64  68
ENDBRANCH  60  64
ENDBRANCH  59  61
BRANCH  59  82
ATOM     82  CB  ASP A   4       4.063  30.089   8.969  0.00  0.00    +0.143 C 
BRANCH  82  83
ATOM     83  CG  ASP A   4       4.612  30.937  10.111  0.00  0.00    +0.367 C 
ATOM     84  OD2 ASP A   4       3.813  31.397  11.009  0.00  0.00    -0.246 OA
ATOM     85  OD1 ASP A   4       5.872  31.191  10.178  0.00  0.00    -0.246 OA
ENDBRANCH  82  83
ENDBRANCH  59  82
ENDBRANCH  55  59
ENDBRANCH  54  57
BRANCH  54  86
ATOM     86  CB  THR A   5       9.687  28.095   8.977  0.00  0.00    +0.137 C 
ATOM     87  CG2 THR A   5       9.846  27.688   7.546  0.00  0.00    +0.034 C 
BRANCH  86  88
ATOM     88  OG1 THR A   5      10.021  29.476   9.110  0.00  0.00    -0.382 OA
ATOM     89  HG1 THR A   5       9.933  29.746  10.058  0.00  0.00    +0.210 HD
ENDBRANCH  86  88
ENDBRANCH  54  86
ENDBRANCH  50  54
ENDBRANCH  49  52
ENDBRANCH  45  49
ENDBRANCH   1  47
BRANCH   1  90
ATOM     90  CB  THR A   7       2.968  28.405  12.624  0.00  0.00    +0.137 C 
ATOM     91  CG2 THR A   7       1.793  27.624  13.135  0.00  0.00    +0.034 C 
BRANCH  90  92
ATOM     92  OG1 THR A   7       2.722  29.795  12.855  0.00  0.00    -0.382 OA
ATOM     93  HG1 THR A   7       3.488  30.325  12.519  0.00  0.00    +0.210 HD
ENDBRANCH  90  92
ENDBRANCH   1  90
TORSDOF 39
REMARK  Name = ../refined-set-2016/5er2/5er2_pocket.pdb
REMARK  283 active torsions:
REMARK  status: ('A' for Active; 'I' for Inactive)
REMARK    1  A    between atoms: _1  and  _3
REMARK    2  A    between atoms: _3  and  _4
REMARK    3  A    between atoms: _3  and  _6
REMARK    4  A    between atoms: _6  and  _7
REMARK    5  A    between atoms: _10  and  _12
REMARK    6  A    between atoms: _12  and  _13
REMARK    7  A    between atoms: _12  and  _15
REMARK    8  A    between atoms: _15  and  _16
REMARK    9  A    between atoms: _19  and  _21
REMARK   10  A    between atoms: _21  and  _22
REMARK   11  A    between atoms: _21  and  _24
REMARK   12  A    between atoms: _24  and  _25
REMARK   13  A    between atoms: _28  and  _30
REMARK   14  A    between atoms: _30  and  _31
REMARK   15  A    between atoms: _30  and  _33
REMARK   16  A    between atoms: _33  and  _34
REMARK   17  A    between atoms: _37  and  _39
REMARK   18  A    between atoms: _39  and  _40
REMARK   19  A    between atoms: _39  and  _42
REMARK   20  A    between atoms: _42  and  _43
REMARK   21  A    between atoms: _46  and  _48
REMARK   22  A    between atoms: _48  and  _49
REMARK   23  A    between atoms: _52  and  _54
REMARK   24  A    between atoms: _54  and  _55
REMARK   25  A    between atoms: _54  and  _57
REMARK   26  A    between atoms: _57  and  _58
REMARK   27  A    between atoms: _63  and  _64
REMARK   28  A    between atoms: _66  and  _68
REMARK   29  A    between atoms: _68  and  _69
REMARK   30  A    between atoms: _68  and  _71
REMARK   31  A    between atoms: _71  and  _72
REMARK   32  A    between atoms: _75  and  _77
REMARK   33  A    between atoms: _77  and  _78
REMARK   34  A    between atoms: _77  and  _80
REMARK   35  A    between atoms: _80  and  _81
REMARK   36  A    between atoms: _87  and  _89
REMARK   37  A    between atoms: _89  and  _90
REMARK   38  A    between atoms: _89  and  _92
REMARK   39  A    between atoms: _92  and  _93
REMARK   40  A    between atoms: _96  and  _98
REMARK   41  A    between atoms: _98  and  _99
REMARK   42  A    between atoms: _98  and  _101
REMARK   43  A    between atoms: _101  and  _102
REMARK   44  A    between atoms: _105  and  _107
REMARK   45  A    between atoms: _107  and  _108
REMARK   46  A    between atoms: _110  and  _112
REMARK   47  A    between atoms: _112  and  _113
REMARK   48  A    between atoms: _112  and  _115
REMARK   49  A    between atoms: _115  and  _116
REMARK   50  A    between atoms: _118  and  _120
REMARK   51  A    between atoms: _120  and  _121
REMARK   52  A    between atoms: _120  and  _123
REMARK   53  A    between atoms: _123  and  _124
REMARK   54  A    between atoms: _126  and  _128
REMARK   55  A    between atoms: _128  and  _129
REMARK   56  A    between atoms: _128  and  _131
REMARK   57  A    between atoms: _131  and  _132
REMARK   58  A    between atoms: _135  and  _137
REMARK   59  A    between atoms: _137  and  _138
REMARK   60  A    between atoms: _137  and  _140
REMARK   61  A    between atoms: _140  and  _141
REMARK   62  A    between atoms: _151  and  _153
REMARK   63  A    between atoms: _153  and  _154
REMARK   64  A    between atoms: _153  and  _156
REMARK   65  A    between atoms: _156  and  _157
REMARK   66  A    between atoms: _159  and  _161
REMARK   67  A    between atoms: _161  and  _162
REMARK   68  A    between atoms: _161  and  _164
REMARK   69  A    between atoms: _164  and  _165
REMARK   70  A    between atoms: _168  and  _170
REMARK   71  A    between atoms: _170  and  _171
REMARK   72  A    between atoms: _170  and  _173
REMARK   73  A    between atoms: _173  and  _174
REMARK   74  A    between atoms: _176  and  _178
REMARK   75  A    between atoms: _178  and  _179
REMARK   76  A    between atoms: _178  and  _181
REMARK   77  A    between atoms: _181  and  _182
REMARK   78  A    between atoms: _187  and  _188
REMARK   79  A    between atoms: _190  and  _192
REMARK   80  A    between atoms: _192  and  _193
REMARK   81  A    between atoms: _195  and  _197
REMARK   82  A    between atoms: _197  and  _198
REMARK   83  A    between atoms: _197  and  _200
REMARK   84  A    between atoms: _200  and  _201
REMARK   85  A    between atoms: _204  and  _206
REMARK   86  A    between atoms: _206  and  _207
REMARK   87  A    between atoms: _209  and  _211
REMARK   88  A    between atoms: _211  and  _212
REMARK   89  A    between atoms: _211  and  _214
REMARK   90  A    between atoms: _214  and  _215
REMARK   91  A    between atoms: _217  and  _219
REMARK   92  A    between atoms: _219  and  _220
REMARK   93  A    between atoms: _219  and  _222
REMARK   94  A    between atoms: _222  and  _223
REMARK   95  A    between atoms: _225  and  _227
REMARK   96  A    between atoms: _227  and  _228
REMARK   97  A    between atoms: _227  and  _230
REMARK   98  A    between atoms: _230  and  _231
REMARK   99  A    between atoms: _233  and  _235
REMARK  100  A    between atoms: _235  and  _236
REMARK  101  A    between atoms: _235  and  _238
REMARK  102  A    between atoms: _238  and  _239
REMARK  103  A    between atoms: _241  and  _243
REMARK  104  A    between atoms: _243  and  _244
REMARK  105  A    between atoms: _243  and  _246
REMARK  106  A    between atoms: _246  and  _247
REMARK  107  A    between atoms: _253  and  _255
REMARK  108  A    between atoms: _255  and  _256
REMARK  109  A    between atoms: _255  and  _258
REMARK  110  A    between atoms: _258  and  _259
REMARK  111  A    between atoms: _259  and  _260
REMARK  112  A    between atoms: _263  and  _265
REMARK  113  A    between atoms: _265  and  _266
REMARK  114  A    between atoms: _265  and  _268
REMARK  115  A    between atoms: _268  and  _269
REMARK  116  A    between atoms: _272  and  _274
REMARK  117  A    between atoms: _274  and  _275
REMARK  118  A    between atoms: _274  and  _277
REMARK  119  A    between atoms: _277  and  _278
REMARK  120  A    between atoms: _280  and  _282
REMARK  121  A    between atoms: _282  and  _283
REMARK  122  A    between atoms: _282  and  _285
REMARK  123  A    between atoms: _285  and  _286
REMARK  124  A    between atoms: _289  and  _291
REMARK  125  A    between atoms: _291  and  _292
REMARK  126  A    between atoms: _291  and  _294
REMARK  127  A    between atoms: _294  and  _295
REMARK  128  A    between atoms: _298  and  _300
REMARK  129  A    between atoms: _300  and  _301
REMARK  130  A    between atoms: _303  and  _305
REMARK  131  A    between atoms: _305  and  _306
REMARK  132  A    between atoms: _305  and  _308
REMARK  133  A    between atoms: _308  and  _309
REMARK  134  A    between atoms: _312  and  _314
REMARK  135  A    between atoms: _314  and  _315
REMARK  136  A    between atoms: _314  and  _317
REMARK  137  A    between atoms: _317  and  _318
REMARK  138  A    between atoms: _321  and  _323
REMARK  139  A    between atoms: _323  and  _324
REMARK  140  A    between atoms: _323  and  _326
REMARK  141  A    between atoms: _326  and  _327
REMARK  142  A    between atoms: _330  and  _332
REMARK  143  A    between atoms: _332  and  _333
REMARK  144  A    between atoms: _336  and  _338
REMARK  145  A    between atoms: _338  and  _339
REMARK  146  A    between atoms: _338  and  _341
REMARK  147  A    between atoms: _341  and  _342
REMARK  148  A    between atoms: _348  and  _350
REMARK  149  A    between atoms: _350  and  _351
REMARK  150  A    between atoms: _350  and  _353
REMARK  151  A    between atoms: _353  and  _354
REMARK  152  A    between atoms: _356  and  _358
REMARK  153  A    between atoms: _358  and  _359
REMARK  154  A    between atoms: _358  and  _361
REMARK  155  A    between atoms: _361  and  _362
REMARK  156  A    between atoms: _365  and  _367
REMARK  157  A    between atoms: _367  and  _368
REMARK  158  A    between atoms: _367  and  _370
REMARK  159  A    between atoms: _370  and  _371
REMARK  160  A    between atoms: _374  and  _376
REMARK  161  A    between atoms: _376  and  _377
REMARK  162  A    between atoms: _376  and  _379
REMARK  163  A    between atoms: _379  and  _380
REMARK  164  A    between atoms: _385  and  _387
REMARK  165  A    between atoms: _387  and  _388
REMARK  166  A    between atoms: _387  and  _390
REMARK  167  A    between atoms: _390  and  _391
REMARK  168  A    between atoms: _394  and  _396
REMARK  169  A    between atoms: _396  and  _397
REMARK  170  A    between atoms: _396  and  _399
REMARK  171  A    between atoms: _402  and  _404
REMARK  172  A    between atoms: _404  and  _405
REMARK  173  A    between atoms: _404  and  _407
REMARK  174  A    between atoms: _407  and  _408
REMARK  175  A    between atoms: _408  and  _409
REMARK  176  A    between atoms: _414  and  _416
REMARK  177  A    between atoms: _416  and  _417
REMARK  178  A    between atoms: _416  and  _419
REMARK  179  A    between atoms: _419  and  _420
REMARK  180  A    between atoms: _420  and  _421
REMARK  181  A    between atoms: _426  and  _428
REMARK  182  A    between atoms: _428  and  _429
REMARK  183  A    between atoms: _428  and  _431
REMARK  184  A    between atoms: _431  and  _432
REMARK  185  A    between atoms: _438  and  _440
REMARK  186  A    between atoms: _440  and  _441
REMARK  187  A    between atoms: _440  and  _443
REMARK  188  A    between atoms: _443  and  _444
REMARK  189  A    between atoms: _454  and  _456
REMARK  190  A    between atoms: _456  and  _457
REMARK  191  A    between atoms: _459  and  _461
REMARK  192  A    between atoms: _461  and  _462
REMARK  193  A    between atoms: _461  and  _464
REMARK  194  A    between atoms: _464  and  _465
REMARK  195  A    between atoms: _468  and  _470
REMARK  196  A    between atoms: _470  and  _471
REMARK  197  A    between atoms: _474  and  _476
REMARK  198  A    between atoms: _476  and  _477
REMARK  199  A    between atoms: _476  and  _479
REMARK  200  A    between atoms: _479  and  _480
REMARK  201  A    between atoms: _483  and  _485
REMARK  202  A    between atoms: _485  and  _486
REMARK  203  A    between atoms: _485  and  _488
REMARK  204  A    between atoms: _488  and  _489
REMARK  205  A    between atoms: _492  and  _494
REMARK  206  A    between atoms: _494  and  _495
REMARK  207  A    between atoms: _497  and  _499
REMARK  208  A    between atoms: _499  and  _500
REMARK  209  A    between atoms: _499  and  _502
REMARK  210  A    between atoms: _502  and  _503
REMARK  211  A    between atoms: _506  and  _508
REMARK  212  A    between atoms: _508  and  _509
REMARK  213  A    between atoms: _508  and  _511
REMARK  214  A    between atoms: _511  and  _512
REMARK  215  A    between atoms: _515  and  _517
REMARK  216  A    between atoms: _517  and  _518
REMARK  217  A    between atoms: _517  and  _520
REMARK  218  A    between atoms: _520  and  _521
REMARK  219  A    between atoms: _524  and  _526
REMARK  220  A    between atoms: _526  and  _527
REMARK  221  A    between atoms: _526  and  _529
REMARK  222  A    between atoms: _529  and  _530
REMARK  223  A    between atoms: _533  and  _535
REMARK  224  A    between atoms: _535  and  _536
REMARK  225  A    between atoms: _535  and  _538
REMARK  226  A    between atoms: _538  and  _539
REMARK  227  A    between atoms: _544  and  _545
REMARK  228  A    between atoms: _547  and  _549
REMARK  229  A    between atoms: _549  and  _550
REMARK  230  A    between atoms: _549  and  _552
REMARK  231  A    between atoms: _555  and  _557
REMARK  232  A    between atoms: _557  and  _558
REMARK  233  A    between atoms: _560  and  _562
REMARK  234  A    between atoms: _562  and  _563
REMARK  235  A    between atoms: _562  and  _565
REMARK  236  A    between atoms: _565  and  _566
REMARK  237  A    between atoms: _572  and  _574
REMARK  238  A    between atoms: _574  and  _575
REMARK  239  A    between atoms: _574  and  _577
REMARK  240  A    between atoms: _577  and  _578
REMARK  241  A    between atoms: _584  and  _586
REMARK  242  A    between atoms: _586  and  _587
REMARK  243  A    between atoms: _589  and  _591
REMARK  244  A    between atoms: _591  and  _592
REMARK  245  A    between atoms: _594  and  _596
REMARK  246  A    between atoms: _596  and  _597
REMARK  247  A    between atoms: _596  and  _599
REMARK  248  A    between atoms: _599  and  _600
REMARK  249  A    between atoms: _600  and  _601
REMARK  250  A    between atoms: _606  and  _608
REMARK  251  A    between atoms: _608  and  _609
REMARK  252  A    between atoms: _608  and  _611
REMARK  253  A    between atoms: _611  and  _612
REMARK  254  A    between atoms: _614  and  _616
REMARK  255  A    between atoms: _616  and  _617
REMARK  256  A    between atoms: _619  and  _621
REMARK  257  A    between atoms: _621  and  _622
REMARK  258  A    between atoms: _621  and  _624
REMARK  259  A    between atoms: _624  and  _625
REMARK  260  A    between atoms: _628  and  _630
REMARK  261  A    between atoms: _630  and  _631
REMARK  262  A    between atoms: _633  and  _635
REMARK  263  A    between atoms: _635  and  _636
REMARK  264  A    between atoms: _635  and  _638
REMARK  265  A    between atoms: _638  and  _639
REMARK  266  A    between atoms: _642  and  _644
REMARK  267  A    between atoms: _644  and  _645
REMARK  268  A    between atoms: _644  and  _647
REMARK  269  A    between atoms: _647  and  _648
REMARK  270  A    between atoms: _653  and  _655
REMARK  271  A    between atoms: _655  and  _656
REMARK  272  A    between atoms: _655  and  _658
REMARK  273  A    between atoms: _658  and  _659
REMARK  274  A    between atoms: _662  and  _664
REMARK  275  A    between atoms: _664  and  _665
REMARK  276  A    between atoms: _664  and  _667
REMARK  277  A    between atoms: _667  and  _668
REMARK  278  A    between atoms: _674  and  _676
REMARK  279  A    between atoms: _676  and  _677
REMARK  280  A    between atoms: _679  and  _681
REMARK  281  A    between atoms: _681  and  _682
REMARK  282  A    between atoms: _681  and  _684
REMARK  283  A    between atoms: _684  and  _685
REMARK                            x       y       z     vdW  Elec       q    Type
REMARK                         _______ _______ _______ _____ _____    ______ ____
ROOT
ATOM      1  C   VAL A   1      -6.773  22.339  24.704  0.00  0.00    +0.238 C 
ATOM      2  O   VAL A   1      -5.669  22.855  24.474  0.00  0.00    -0.274 OA
ATOM      3  N   GLY A   2      -7.861  22.575  23.979  0.00  0.00    -0.297 N 
ATOM      4  H   GLY A   2      -8.721  22.026  24.178  0.00  0.00    +0.150 HD
ENDROOT
BRANCH   1   5
ATOM      5  CA  VAL A   1      -6.954  21.347  25.868  0.00  0.00    +0.145 C 
BRANCH   5   6
ATOM      6  CB  VAL A   1      -6.587  19.936  25.413  0.00  0.00    +0.025 C 
ATOM      7  CG2 VAL A   1      -6.999  18.856  26.417  0.00  0.00    +0.002 C 
ATOM      8  CG1 VAL A   1      -5.076  19.755  25.217  0.00  0.00    +0.002 C 
ENDBRANCH   5   6
BRANCH   5   9
ATOM      9  N   VAL A   1      -8.339  21.402  26.391  0.00  0.00    -0.238 NA
ATOM     10  H   VAL A   1      -9.055  20.758  25.998  0.00  0.00    +0.142 HD
ENDBRANCH   5   9
ENDBRANCH   1   5
BRANCH   3  11
ATOM     11  CA  GLY A   2      -7.899  23.591  22.897  0.00  0.00    +0.163 C 
BRANCH  11  12
ATOM     12  C   GLY A   2      -7.695  23.020  21.478  0.00  0.00    +0.229 C 
ATOM     13  O   GLY A   2      -7.036  23.634  20.626  0.00  0.00    -0.286 OA
ENDBRANCH  11  12
ENDBRANCH   3  11
TORSDOF 5
REMARK  Name = ../refined-set-2016/5er2/5er2_pocket.pdb
REMARK  283 active torsions:
REMARK  status: ('A' for Active; 'I' for Inactive)
REMARK    1  A    between atoms: _1  and  _3
REMARK    2  A    between atoms: _3  and  _4
REMARK    3  A    between atoms: _3  and  _6
REMARK    4  A    between atoms: _6  and  _7
REMARK    5  A    between atoms: _10  and  _12
REMARK    6  A    between atoms: _12  and  _13
REMARK    7  A    between atoms: _12  and  _15
REMARK    8  A    between atoms: _15  and  _16
REMARK    9  A    between atoms: _19  and  _21
REMARK   10  A    between atoms: _21  and  _22
REMARK   11  A    between atoms: _21  and  _24
REMARK   12  A    between atoms: _24  and  _25
REMARK   13  A    between atoms: _28  and  _30
REMARK   14  A    between atoms: _30  and  _31
REMARK   15  A    between atoms: _30  and  _33
REMARK   16  A    between atoms: _33  and  _34
REMARK   17  A    between atoms: _37  and  _39
REMARK   18  A    between atoms: _39  and  _40
REMARK   19  A    between atoms: _39  and  _42
REMARK   20  A    between atoms: _42  and  _43
REMARK   21  A    between atoms: _46  and  _48
REMARK   22  A    between atoms: _48  and  _49
REMARK   23  A    between atoms: _52  and  _54
REMARK   24  A    between atoms: _54  and  _55
REMARK   25  A    between atoms: _54  and  _57
REMARK   26  A    between atoms: _57  and  _58
REMARK   27  A    between atoms: _63  and  _64
REMARK   28  A    between atoms: _66  and  _68
REMARK   29  A    between atoms: _68  and  _69
REMARK   30  A    between atoms: _68  and  _71
REMARK   31  A    between atoms: _71  and  _72
REMARK   32  A    between atoms: _75  and  _77
REMARK   33  A    between atoms: _77  and  _78
REMARK   34  A    between atoms: _77  and  _80
REMARK   35  A    between atoms: _80  and  _81
REMARK   36  A    between atoms: _87  and  _89
REMARK   37  A    between atoms: _89  and  _90
REMARK   38  A    between atoms: _89  and  _92
REMARK   39  A    between atoms: _92  and  _93
REMARK   40  A    between atoms: _96  and  _98
REMARK   41  A    between atoms: _98  and  _99
REMARK   42  A    between atoms: _98  and  _101
REMARK   43  A    between atoms: _101  and  _102
REMARK   44  A    between atoms: _105  and  _107
REMARK   45  A    between atoms: _107  and  _108
REMARK   46  A    between atoms: _110  and  _112
REMARK   47  A    between atoms: _112  and  _113
REMARK   48  A    between atoms: _112  and  _115
REMARK   49  A    between atoms: _115  and  _116
REMARK   50  A    between atoms: _118  and  _120
REMARK   51  A    between atoms: _120  and  _121
REMARK   52  A    between atoms: _120  and  _123
REMARK   53  A    between atoms: _123  and  _124
REMARK   54  A    between atoms: _126  and  _128
REMARK   55  A    between atoms: _128  and  _129
REMARK   56  A    between atoms: _128  and  _131
REMARK   57  A    between atoms: _131  and  _132
REMARK   58  A    between atoms: _135  and  _137
REMARK   59  A    between atoms: _137  and  _138
REMARK   60  A    between atoms: _137  and  _140
REMARK   61  A    between atoms: _140  and  _141
REMARK   62  A    between atoms: _151  and  _153
REMARK   63  A    between atoms: _153  and  _154
REMARK   64  A    between atoms: _153  and  _156
REMARK   65  A    between atoms: _156  and  _157
REMARK   66  A    between atoms: _159  and  _161
REMARK   67  A    between atoms: _161  and  _162
REMARK   68  A    between atoms: _161  and  _164
REMARK   69  A    between atoms: _164  and  _165
REMARK   70  A    between atoms: _168  and  _170
REMARK   71  A    between atoms: _170  and  _171
REMARK   72  A    between atoms: _170  and  _173
REMARK   73  A    between atoms: _173  and  _174
REMARK   74  A    between atoms: _176  and  _178
REMARK   75  A    between atoms: _178  and  _179
REMARK   76  A    between atoms: _178  and  _181
REMARK   77  A    between atoms: _181  and  _182
REMARK   78  A    between atoms: _187  and  _188
REMARK   79  A    between atoms: _190  and  _192
REMARK   80  A    between atoms: _192  and  _193
REMARK   81  A    between atoms: _195  and  _197
REMARK   82  A    between atoms: _197  and  _198
REMARK   83  A    between atoms: _197  and  _200
REMARK   84  A    between atoms: _200  and  _201
REMARK   85  A    between atoms: _204  and  _206
REMARK   86  A    between atoms: _206  and  _207
REMARK   87  A    between atoms: _209  and  _211
REMARK   88  A    between atoms: _211  and  _212
REMARK   89  A    between atoms: _211  and  _214
REMARK   90  A    between atoms: _214  and  _215
REMARK   91  A    between atoms: _217  and  _219
REMARK   92  A    between atoms: _219  and  _220
REMARK   93  A    between atoms: _219  and  _222
REMARK   94  A    between atoms: _222  and  _223
REMARK   95  A    between atoms: _225  and  _227
REMARK   96  A    between atoms: _227  and  _228
REMARK   97  A    between atoms: _227  and  _230
REMARK   98  A    between atoms: _230  and  _231
REMARK   99  A    between atoms: _233  and  _235
REMARK  100  A    between atoms: _235  and  _236
REMARK  101  A    between atoms: _235  and  _238
REMARK  102  A    between atoms: _238  and  _239
REMARK  103  A    between atoms: _241  and  _243
REMARK  104  A    between atoms: _243  and  _244
REMARK  105  A    between atoms: _243  and  _246
REMARK  106  A    between atoms: _246  and  _247
REMARK  107  A    between atoms: _253  and  _255
REMARK  108  A    between atoms: _255  and  _256
REMARK  109  A    between atoms: _255  and  _258
REMARK  110  A    between atoms: _258  and  _259
REMARK  111  A    between atoms: _259  and  _260
REMARK  112  A    between atoms: _263  and  _265
REMARK  113  A    between atoms: _265  and  _266
REMARK  114  A    between atoms: _265  and  _268
REMARK  115  A    between atoms: _268  and  _269
REMARK  116  A    between atoms: _272  and  _274
REMARK  117  A    between atoms: _274  and  _275
REMARK  118  A    between atoms: _274  and  _277
REMARK  119  A    between atoms: _277  and  _278
REMARK  120  A    between atoms: _280  and  _282
REMARK  121  A    between atoms: _282  and  _283
REMARK  122  A    between atoms: _282  and  _285
REMARK  123  A    between atoms: _285  and  _286
REMARK  124  A    between atoms: _289  and  _291
REMARK  125  A    between atoms: _291  and  _292
REMARK  126  A    between atoms: _291  and  _294
REMARK  127  A    between atoms: _294  and  _295
REMARK  128  A    between atoms: _298  and  _300
REMARK  129  A    between atoms: _300  and  _301
REMARK  130  A    between atoms: _303  and  _305
REMARK  131  A    between atoms: _305  and  _306
REMARK  132  A    between atoms: _305  and  _308
REMARK  133  A    between atoms: _308  and  _309
REMARK  134  A    between atoms: _312  and  _314
REMARK  135  A    between atoms: _314  and  _315
REMARK  136  A    between atoms: _314  and  _317
REMARK  137  A    between atoms: _317  and  _318
REMARK  138  A    between atoms: _321  and  _323
REMARK  139  A    between atoms: _323  and  _324
REMARK  140  A    between atoms: _323  and  _326
REMARK  141  A    between atoms: _326  and  _327
REMARK  142  A    between atoms: _330  and  _332
REMARK  143  A    between atoms: _332  and  _333
REMARK  144  A    between atoms: _336  and  _338
REMARK  145  A    between atoms: _338  and  _339
REMARK  146  A    between atoms: _338  and  _341
REMARK  147  A    between atoms: _341  and  _342
REMARK  148  A    between atoms: _348  and  _350
REMARK  149  A    between atoms: _350  and  _351
REMARK  150  A    between atoms: _350  and  _353
REMARK  151  A    between atoms: _353  and  _354
REMARK  152  A    between atoms: _356  and  _358
REMARK  153  A    between atoms: _358  and  _359
REMARK  154  A    between atoms: _358  and  _361
REMARK  155  A    between atoms: _361  and  _362
REMARK  156  A    between atoms: _365  and  _367
REMARK  157  A    between atoms: _367  and  _368
REMARK  158  A    between atoms: _367  and  _370
REMARK  159  A    between atoms: _370  and  _371
REMARK  160  A    between atoms: _374  and  _376
REMARK  161  A    between atoms: _376  and  _377
REMARK  162  A    between atoms: _376  and  _379
REMARK  163  A    between atoms: _379  and  _380
REMARK  164  A    between atoms: _385  and  _387
REMARK  165  A    between atoms: _387  and  _388
REMARK  166  A    between atoms: _387  and  _390
REMARK  167  A    between atoms: _390  and  _391
REMARK  168  A    between atoms: _394  and  _396
REMARK  169  A    between atoms: _396  and  _397
REMARK  170  A    between atoms: _396  and  _399
REMARK  171  A    between atoms: _402  and  _404
REMARK  172  A    between atoms: _404  and  _405
REMARK  173  A    between atoms: _404  and  _407
REMARK  174  A    between atoms: _407  and  _408
REMARK  175  A    between atoms: _408  and  _409
REMARK  176  A    between atoms: _414  and  _416
REMARK  177  A    between atoms: _416  and  _417
REMARK  178  A    between atoms: _416  and  _419
REMARK  179  A    between atoms: _419  and  _420
REMARK  180  A    between atoms: _420  and  _421
REMARK  181  A    between atoms: _426  and  _428
REMARK  182  A    between atoms: _428  and  _429
REMARK  183  A    between atoms: _428  and  _431
REMARK  184  A    between atoms: _431  and  _432
REMARK  185  A    between atoms: _438  and  _440
REMARK  186  A    between atoms: _440  and  _441
REMARK  187  A    between atoms: _440  and  _443
REMARK  188  A    between atoms: _443  and  _444
REMARK  189  A    between atoms: _454  and  _456
REMARK  190  A    between atoms: _456  and  _457
REMARK  191  A    between atoms: _459  and  _461
REMARK  192  A    between atoms: _461  and  _462
REMARK  193  A    between atoms: _461  and  _464
REMARK  194  A    between atoms: _464  and  _465
REMARK  195  A    between atoms: _468  and  _470
REMARK  196  A    between atoms: _470  and  _471
REMARK  197  A    between atoms: _474  and  _476
REMARK  198  A    between atoms: _476  and  _477
REMARK  199  A    between atoms: _476  and  _479
REMARK  200  A    between atoms: _479  and  _480
REMARK  201  A    between atoms: _483  and  _485
REMARK  202  A    between atoms: _485  and  _486
REMARK  203  A    between atoms: _485  and  _488
REMARK  204  A    between atoms: _488  and  _489
REMARK  205  A    between atoms: _492  and  _494
REMARK  206  A    between atoms: _494  and  _495
REMARK  207  A    between atoms: _497  and  _499
REMARK  208  A    between atoms: _499  and  _500
REMARK  209  A    between atoms: _499  and  _502
REMARK  210  A    between atoms: _502  and  _503
REMARK  211  A    between atoms: _506  and  _508
REMARK  212  A    between atoms: _508  and  _509
REMARK  213  A    between atoms: _508  and  _511
REMARK  214  A    between atoms: _511  and  _512
REMARK  215  A    between atoms: _515  and  _517
REMARK  216  A    between atoms: _517  and  _518
REMARK  217  A    between atoms: _517  and  _520
REMARK  218  A    between atoms: _520  and  _521
REMARK  219  A    between atoms: _524  and  _526
REMARK  220  A    between atoms: _526  and  _527
REMARK  221  A    between atoms: _526  and  _529
REMARK  222  A    between atoms: _529  and  _530
REMARK  223  A    between atoms: _533  and  _535
REMARK  224  A    between atoms: _535  and  _536
REMARK  225  A    between atoms: _535  and  _538
REMARK  226  A    between atoms: _538  and  _539
REMARK  227  A    between atoms: _544  and  _545
REMARK  228  A    between atoms: _547  and  _549
REMARK  229  A    between atoms: _549  and  _550
REMARK  230  A    between atoms: _549  and  _552
REMARK  231  A    between atoms: _555  and  _557
REMARK  232  A    between atoms: _557  and  _558
REMARK  233  A    between atoms: _560  and  _562
REMARK  234  A    between atoms: _562  and  _563
REMARK  235  A    between atoms: _562  and  _565
REMARK  236  A    between atoms: _565  and  _566
REMARK  237  A    between atoms: _572  and  _574
REMARK  238  A    between atoms: _574  and  _575
REMARK  239  A    between atoms: _574  and  _577
REMARK  240  A    between atoms: _577  and  _578
REMARK  241  A    between atoms: _584  and  _586
REMARK  242  A    between atoms: _586  and  _587
REMARK  243  A    between atoms: _589  and  _591
REMARK  244  A    between atoms: _591  and  _592
REMARK  245  A    between atoms: _594  and  _596
REMARK  246  A    between atoms: _596  and  _597
REMARK  247  A    between atoms: _596  and  _599
REMARK  248  A    between atoms: _599  and  _600
REMARK  249  A    between atoms: _600  and  _601
REMARK  250  A    between atoms: _606  and  _608
REMARK  251  A    between atoms: _608  and  _609
REMARK  252  A    between atoms: _608  and  _611
REMARK  253  A    between atoms: _611  and  _612
REMARK  254  A    between atoms: _614  and  _616
REMARK  255  A    between atoms: _616  and  _617
REMARK  256  A    between atoms: _619  and  _621
REMARK  257  A    between atoms: _621  and  _622
REMARK  258  A    between atoms: _621  and  _624
REMARK  259  A    between atoms: _624  and  _625
REMARK  260  A    between atoms: _628  and  _630
REMARK  261  A    between atoms: _630  and  _631
REMARK  262  A    between atoms: _633  and  _635
REMARK  263  A    between atoms: _635  and  _636
REMARK  264  A    between atoms: _635  and  _638
REMARK  265  A    between atoms: _638  and  _639
REMARK  266  A    between atoms: _642  and  _644
REMARK  267  A    between atoms: _644  and  _645
REMARK  268  A    between atoms: _644  and  _647
REMARK  269  A    between atoms: _647  and  _648
REMARK  270  A    between atoms: _653  and  _655
REMARK  271  A    between atoms: _655  and  _656
REMARK  272  A    between atoms: _655  and  _658
REMARK  273  A    between atoms: _658  and  _659
REMARK  274  A    between atoms: _662  and  _664
REMARK  275  A    between atoms: _664  and  _665
REMARK  276  A    between atoms: _664  and  _667
REMARK  277  A    between atoms: _667  and  _668
REMARK  278  A    between atoms: _674  and  _676
REMARK  279  A    between atoms: _676  and  _677
REMARK  280  A    between atoms: _679  and  _681
REMARK  281  A    between atoms: _681  and  _682
REMARK  282  A    between atoms: _681  and  _684
REMARK  283  A    between atoms: _684  and  _685
REMARK                            x       y       z     vdW  Elec       q    Type
REMARK                         _______ _______ _______ _____ _____    ______ ____
ROOT
ATOM      1  CB  PHE A   1       1.375  16.893  18.201  0.00  0.00    +0.051 C 
ENDROOT
BRANCH   1   2
ATOM      2  CG  PHE A   1       2.448  17.950  18.058  0.00  0.00    -0.020 A 
ATOM      3  CD2 PHE A   1       2.802  18.736  19.149  0.00  0.00    -0.004 A 
ATOM      4  CE2 PHE A   1       3.830  19.673  19.017  0.00  0.00    -0.000 A 
ATOM      5  CZ  PHE A   1       4.491  19.819  17.789  0.00  0.00    -0.000 A 
ATOM      6  CE1 PHE A   1       4.121  19.030  16.694  0.00  0.00    -0.000 A 
ATOM      7  CD1 PHE A   1       3.099  18.094  16.830  0.00  0.00    -0.004 A 
ENDBRANCH   1   2
BRANCH   1   8
ATOM      8  CA  PHE A   1       2.008  15.550  17.921  0.00  0.00    +0.137 C 
BRANCH   8   9
ATOM      9  N   PHE A   1       1.067  14.580  17.386  0.00  0.00    -0.239 NA
ATOM     10  H   PHE A   1       0.042  14.742  17.448  0.00  0.00    +0.142 HD
ENDBRANCH   8   9
BRANCH   8  11
ATOM     11  C   PHE A   1       2.706  15.061  19.178  0.00  0.00    +0.224 C 
ATOM     12  O   PHE A   1       3.944  15.179  19.285  0.00  0.00    -0.287 OA
ENDBRANCH   8  11
ENDBRANCH   1   8
TORSDOF 4
REMARK  Name = ../refined-set-2016/5er2/5er2_pocket.pdb
REMARK  283 active torsions:
REMARK  status: ('A' for Active; 'I' for Inactive)
REMARK    1  A    between atoms: _1  and  _3
REMARK    2  A    between atoms: _3  and  _4
REMARK    3  A    between atoms: _3  and  _6
REMARK    4  A    between atoms: _6  and  _7
REMARK    5  A    between atoms: _10  and  _12
REMARK    6  A    between atoms: _12  and  _13
REMARK    7  A    between atoms: _12  and  _15
REMARK    8  A    between atoms: _15  and  _16
REMARK    9  A    between atoms: _19  and  _21
REMARK   10  A    between atoms: _21  and  _22
REMARK   11  A    between atoms: _21  and  _24
REMARK   12  A    between atoms: _24  and  _25
REMARK   13  A    between atoms: _28  and  _30
REMARK   14  A    between atoms: _30  and  _31
REMARK   15  A    between atoms: _30  and  _33
REMARK   16  A    between atoms: _33  and  _34
REMARK   17  A    between atoms: _37  and  _39
REMARK   18  A    between atoms: _39  and  _40
REMARK   19  A    between atoms: _39  and  _42
REMARK   20  A    between atoms: _42  and  _43
REMARK   21  A    between atoms: _46  and  _48
REMARK   22  A    between atoms: _48  and  _49
REMARK   23  A    between atoms: _52  and  _54
REMARK   24  A    between atoms: _54  and  _55
REMARK   25  A    between atoms: _54  and  _57
REMARK   26  A    between atoms: _57  and  _58
REMARK   27  A    between atoms: _63  and  _64
REMARK   28  A    between atoms: _66  and  _68
REMARK   29  A    between atoms: _68  and  _69
REMARK   30  A    between atoms: _68  and  _71
REMARK   31  A    between atoms: _71  and  _72
REMARK   32  A    between atoms: _75  and  _77
REMARK   33  A    between atoms: _77  and  _78
REMARK   34  A    between atoms: _77  and  _80
REMARK   35  A    between atoms: _80  and  _81
REMARK   36  A    between atoms: _87  and  _89
REMARK   37  A    between atoms: _89  and  _90
REMARK   38  A    between atoms: _89  and  _92
REMARK   39  A    between atoms: _92  and  _93
REMARK   40  A    between atoms: _96  and  _98
REMARK   41  A    between atoms: _98  and  _99
REMARK   42  A    between atoms: _98  and  _101
REMARK   43  A    between atoms: _101  and  _102
REMARK   44  A    between atoms: _105  and  _107
REMARK   45  A    between atoms: _107  and  _108
REMARK   46  A    between atoms: _110  and  _112
REMARK   47  A    between atoms: _112  and  _113
REMARK   48  A    between atoms: _112  and  _115
REMARK   49  A    between atoms: _115  and  _116
REMARK   50  A    between atoms: _118  and  _120
REMARK   51  A    between atoms: _120  and  _121
REMARK   52  A    between atoms: _120  and  _123
REMARK   53  A    between atoms: _123  and  _124
REMARK   54  A    between atoms: _126  and  _128
REMARK   55  A    between atoms: _128  and  _129
REMARK   56  A    between atoms: _128  and  _131
REMARK   57  A    between atoms: _131  and  _132
REMARK   58  A    between atoms: _135  and  _137
REMARK   59  A    between atoms: _137  and  _138
REMARK   60  A    between atoms: _137  and  _140
REMARK   61  A    between atoms: _140  and  _141
REMARK   62  A    between atoms: _151  and  _153
REMARK   63  A    between atoms: _153  and  _154
REMARK   64  A    between atoms: _153  and  _156
REMARK   65  A    between atoms: _156  and  _157
REMARK   66  A    between atoms: _159  and  _161
REMARK   67  A    between atoms: _161  and  _162
REMARK   68  A    between atoms: _161  and  _164
REMARK   69  A    between atoms: _164  and  _165
REMARK   70  A    between atoms: _168  and  _170
REMARK   71  A    between atoms: _170  and  _171
REMARK   72  A    between atoms: _170  and  _173
REMARK   73  A    between atoms: _173  and  _174
REMARK   74  A    between atoms: _176  and  _178
REMARK   75  A    between atoms: _178  and  _179
REMARK   76  A    between atoms: _178  and  _181
REMARK   77  A    between atoms: _181  and  _182
REMARK   78  A    between atoms: _187  and  _188
REMARK   79  A    between atoms: _190  and  _192
REMARK   80  A    between atoms: _192  and  _193
REMARK   81  A    between atoms: _195  and  _197
REMARK   82  A    between atoms: _197  and  _198
REMARK   83  A    between atoms: _197  and  _200
REMARK   84  A    between atoms: _200  and  _201
REMARK   85  A    between atoms: _204  and  _206
REMARK   86  A    between atoms: _206  and  _207
REMARK   87  A    between atoms: _209  and  _211
REMARK   88  A    between atoms: _211  and  _212
REMARK   89  A    between atoms: _211  and  _214
REMARK   90  A    between atoms: _214  and  _215
REMARK   91  A    between atoms: _217  and  _219
REMARK   92  A    between atoms: _219  and  _220
REMARK   93  A    between atoms: _219  and  _222
REMARK   94  A    between atoms: _222  and  _223
REMARK   95  A    between atoms: _225  and  _227
REMARK   96  A    between atoms: _227  and  _228
REMARK   97  A    between atoms: _227  and  _230
REMARK   98  A    between atoms: _230  and  _231
REMARK   99  A    between atoms: _233  and  _235
REMARK  100  A    between atoms: _235  and  _236
REMARK  101  A    between atoms: _235  and  _238
REMARK  102  A    between atoms: _238  and  _239
REMARK  103  A    between atoms: _241  and  _243
REMARK  104  A    between atoms: _243  and  _244
REMARK  105  A    between atoms: _243  and  _246
REMARK  106  A    between atoms: _246  and  _247
REMARK  107  A    between atoms: _253  and  _255
REMARK  108  A    between atoms: _255  and  _256
REMARK  109  A    between atoms: _255  and  _258
REMARK  110  A    between atoms: _258  and  _259
REMARK  111  A    between atoms: _259  and  _260
REMARK  112  A    between atoms: _263  and  _265
REMARK  113  A    between atoms: _265  and  _266
REMARK  114  A    between atoms: _265  and  _268
REMARK  115  A    between atoms: _268  and  _269
REMARK  116  A    between atoms: _272  and  _274
REMARK  117  A    between atoms: _274  and  _275
REMARK  118  A    between atoms: _274  and  _277
REMARK  119  A    between atoms: _277  and  _278
REMARK  120  A    between atoms: _280  and  _282
REMARK  121  A    between atoms: _282  and  _283
REMARK  122  A    between atoms: _282  and  _285
REMARK  123  A    between atoms: _285  and  _286
REMARK  124  A    between atoms: _289  and  _291
REMARK  125  A    between atoms: _291  and  _292
REMARK  126  A    between atoms: _291  and  _294
REMARK  127  A    between atoms: _294  and  _295
REMARK  128  A    between atoms: _298  and  _300
REMARK  129  A    between atoms: _300  and  _301
REMARK  130  A    between atoms: _303  and  _305
REMARK  131  A    between atoms: _305  and  _306
REMARK  132  A    between atoms: _305  and  _308
REMARK  133  A    between atoms: _308  and  _309
REMARK  134  A    between atoms: _312  and  _314
REMARK  135  A    between atoms: _314  and  _315
REMARK  136  A    between atoms: _314  and  _317
REMARK  137  A    between atoms: _317  and  _318
REMARK  138  A    between atoms: _321  and  _323
REMARK  139  A    between atoms: _323  and  _324
REMARK  140  A    between atoms: _323  and  _326
REMARK  141  A    between atoms: _326  and  _327
REMARK  142  A    between atoms: _330  and  _332
REMARK  143  A    between atoms: _332  and  _333
REMARK  144  A    between atoms: _336  and  _338
REMARK  145  A    between atoms: _338  and  _339
REMARK  146  A    between atoms: _338  and  _341
REMARK  147  A    between atoms: _341  and  _342
REMARK  148  A    between atoms: _348  and  _350
REMARK  149  A    between atoms: _350  and  _351
REMARK  150  A    between atoms: _350  and  _353
REMARK  151  A    between atoms: _353  and  _354
REMARK  152  A    between atoms: _356  and  _358
REMARK  153  A    between atoms: _358  and  _359
REMARK  154  A    between atoms: _358  and  _361
REMARK  155  A    between atoms: _361  and  _362
REMARK  156  A    between atoms: _365  and  _367
REMARK  157  A    between atoms: _367  and  _368
REMARK  158  A    between atoms: _367  and  _370
REMARK  159  A    between atoms: _370  and  _371
REMARK  160  A    between atoms: _374  and  _376
REMARK  161  A    between atoms: _376  and  _377
REMARK  162  A    between atoms: _376  and  _379
REMARK  163  A    between atoms: _379  and  _380
REMARK  164  A    between atoms: _385  and  _387
REMARK  165  A    between atoms: _387  and  _388
REMARK  166  A    between atoms: _387  and  _390
REMARK  167  A    between atoms: _390  and  _391
REMARK  168  A    between atoms: _394  and  _396
REMARK  169  A    between atoms: _396  and  _397
REMARK  170  A    between atoms: _396  and  _399
REMARK  171  A    between atoms: _402  and  _404
REMARK  172  A    between atoms: _404  and  _405
REMARK  173  A    between atoms: _404  and  _407
REMARK  174  A    between atoms: _407  and  _408
REMARK  175  A    between atoms: _408  and  _409
REMARK  176  A    between atoms: _414  and  _416
REMARK  177  A    between atoms: _416  and  _417
REMARK  178  A    between atoms: _416  and  _419
REMARK  179  A    between atoms: _419  and  _420
REMARK  180  A    between atoms: _420  and  _421
REMARK  181  A    between atoms: _426  and  _428
REMARK  182  A    between atoms: _428  and  _429
REMARK  183  A    between atoms: _428  and  _431
REMARK  184  A    between atoms: _431  and  _432
REMARK  185  A    between atoms: _438  and  _440
REMARK  186  A    between atoms: _440  and  _441
REMARK  187  A    between atoms: _440  and  _443
REMARK  188  A    between atoms: _443  and  _444
REMARK  189  A    between atoms: _454  and  _456
REMARK  190  A    between atoms: _456  and  _457
REMARK  191  A    between atoms: _459  and  _461
REMARK  192  A    between atoms: _461  and  _462
REMARK  193  A    between atoms: _461  and  _464
REMARK  194  A    between atoms: _464  and  _465
REMARK  195  A    between atoms: _468  and  _470
REMARK  196  A    between atoms: _470  and  _471
REMARK  197  A    between atoms: _474  and  _476
REMARK  198  A    between atoms: _476  and  _477
REMARK  199  A    between atoms: _476  and  _479
REMARK  200  A    between atoms: _479  and  _480
REMARK  201  A    between atoms: _483  and  _485
REMARK  202  A    between atoms: _485  and  _486
REMARK  203  A    between atoms: _485  and  _488
REMARK  204  A    between atoms: _488  and  _489
REMARK  205  A    between atoms: _492  and  _494
REMARK  206  A    between atoms: _494  and  _495
REMARK  207  A    between atoms: _497  and  _499
REMARK  208  A    between atoms: _499  and  _500
REMARK  209  A    between atoms: _499  and  _502
REMARK  210  A    between atoms: _502  and  _503
REMARK  211  A    between atoms: _506  and  _508
REMARK  212  A    between atoms: _508  and  _509
REMARK  213  A    between atoms: _508  and  _511
REMARK  214  A    between atoms: _511  and  _512
REMARK  215  A    between atoms: _515  and  _517
REMARK  216  A    between atoms: _517  and  _518
REMARK  217  A    between atoms: _517  and  _520
REMARK  218  A    between atoms: _520  and  _521
REMARK  219  A    between atoms: _524  and  _526
REMARK  220  A    between atoms: _526  and  _527
REMARK  221  A    between atoms: _526  and  _529
REMARK  222  A    between atoms: _529  and  _530
REMARK  223  A    between atoms: _533  and  _535
REMARK  224  A    between atoms: _535  and  _536
REMARK  225  A    between atoms: _535  and  _538
REMARK  226  A    between atoms: _538  and  _539
REMARK  227  A    between atoms: _544  and  _545
REMARK  228  A    between atoms: _547  and  _549
REMARK  229  A    between atoms: _549  and  _550
REMARK  230  A    between atoms: _549  and  _552
REMARK  231  A    between atoms: _555  and  _557
REMARK  232  A    between atoms: _557  and  _558
REMARK  233  A    between atoms: _560  and  _562
REMARK  234  A    between atoms: _562  and  _563
REMARK  235  A    between atoms: _562  and  _565
REMARK  236  A    between atoms: _565  and  _566
REMARK  237  A    between atoms: _572  and  _574
REMARK  238  A    between atoms: _574  and  _575
REMARK  239  A    between atoms: _574  and  _577
REMARK  240  A    between atoms: _577  and  _578
REMARK  241  A    between atoms: _584  and  _586
REMARK  242  A    between atoms: _586  and  _587
REMARK  243  A    between atoms: _589  and  _591
REMARK  244  A    between atoms: _591  and  _592
REMARK  245  A    between atoms: _594  and  _596
REMARK  246  A    between atoms: _596  and  _597
REMARK  247  A    between atoms: _596  and  _599
REMARK  248  A    between atoms: _599  and  _600
REMARK  249  A    between atoms: _600  and  _601
REMARK  250  A    between atoms: _606  and  _608
REMARK  251  A    between atoms: _608  and  _609
REMARK  252  A    between atoms: _608  and  _611
REMARK  253  A    between atoms: _611  and  _612
REMARK  254  A    between atoms: _614  and  _616
REMARK  255  A    between atoms: _616  and  _617
REMARK  256  A    between atoms: _619  and  _621
REMARK  257  A    between atoms: _621  and  _622
REMARK  258  A    between atoms: _621  and  _624
REMARK  259  A    between atoms: _624  and  _625
REMARK  260  A    between atoms: _628  and  _630
REMARK  261  A    between atoms: _630  and  _631
REMARK  262  A    between atoms: _633  and  _635
REMARK  263  A    between atoms: _635  and  _636
REMARK  264  A    between atoms: _635  and  _638
REMARK  265  A    between atoms: _638  and  _639
REMARK  266  A    between atoms: _642  and  _644
REMARK  267  A    between atoms: _644  and  _645
REMARK  268  A    between atoms: _644  and  _647
REMARK  269  A    between atoms: _647  and  _648
REMARK  270  A    between atoms: _653  and  _655
REMARK  271  A    between atoms: _655  and  _656
REMARK  272  A    between atoms: _655  and  _658
REMARK  273  A    between atoms: _658  and  _659
REMARK  274  A    between atoms: _662  and  _664
REMARK  275  A    between atoms: _664  and  _665
REMARK  276  A    between atoms: _664  and  _667
REMARK  277  A    between atoms: _667  and  _668
REMARK  278  A    between atoms: _674  and  _676
REMARK  279  A    between atoms: _676  and  _677
REMARK  280  A    between atoms: _679  and  _681
REMARK  281  A    between atoms: _681  and  _682
REMARK  282  A    between atoms: _681  and  _684
REMARK  283  A    between atoms: _684  and  _685
REMARK                            x       y       z     vdW  Elec       q    Type
REMARK                         _______ _______ _______ _____ _____    ______ ____
ROOT
ATOM      1  C   PHE A   1      -2.451  16.181  19.237  0.00  0.00    +0.239 C 
ATOM      2  O   PHE A   1      -1.412  15.742  18.749  0.00  0.00    -0.274 OA
ATOM      3  N   GLY A   2      -3.475  16.566  18.495  0.00  0.00    -0.296 N 
ATOM      4  H   GLY A   2      -4.318  16.976  18.945  0.00  0.00    +0.150 HD
ENDROOT
BRANCH   1   5
ATOM      5  CA  PHE A   1      -2.625  16.325  20.738  0.00  0.00    +0.149 C 
BRANCH   5   6
ATOM      6  N   PHE A   1      -2.152  15.123  21.435  0.00  0.00    -0.238 NA
ATOM      7  H   PHE A   1      -1.157  15.090  21.735  0.00  0.00    +0.142 HD
ENDBRANCH   5   6
BRANCH   5   8
ATOM      8  CB  PHE A   1      -1.847  17.550  21.227  0.00  0.00    +0.053 C 
BRANCH   8   9
ATOM      9  CG  PHE A   1      -2.576  18.825  20.799  0.00  0.00    -0.020 A 
ATOM     10  CD2 PHE A   1      -3.857  19.060  21.286  0.00  0.00    -0.004 A 
ATOM     11  CE2 PHE A   1      -4.542  20.212  20.918  0.00  0.00    -0.000 A 
ATOM     12  CZ  PHE A   1      -3.918  21.111  20.061  0.00  0.00    -0.000 A 
ATOM     13  CE1 PHE A   1      -2.638  20.861  19.585  0.00  0.00    -0.000 A 
ATOM     14  CD1 PHE A   1      -1.942  19.715  19.943  0.00  0.00    -0.004 A 
ENDBRANCH   8   9
ENDBRANCH   5   8
ENDBRANCH   1   5
BRANCH   3  15
ATOM     15  CA  GLY A   2      -3.421  16.415  17.035  0.00  0.00    +0.176 C 
BRANCH  15  16
ATOM     16  C   GLY A   2      -2.577  17.487  16.370  0.00  0.00    +0.243 C 
ATOM     17  O   GLY A   2      -2.498  18.631  16.813  0.00  0.00    -0.273 OA
ATOM     18  N   GLY A   3      -1.931  17.114  15.280  0.00  0.00    -0.296 N 
ATOM     19  H   GLY A   3      -2.065  16.147  14.923  0.00  0.00    +0.150 HD
BRANCH  18  20
ATOM     20  CA  GLY A   3      -1.030  18.021  14.556  0.00  0.00    +0.163 C 
BRANCH  20  21
ATOM     21  C   GLY A   3      -1.797  18.819  13.514  0.00  0.00    +0.229 C 
ATOM     22  O   GLY A   3      -1.240  19.739  12.918  0.00  0.00    -0.286 OA
ENDBRANCH  20  21
ENDBRANCH  18  20
ENDBRANCH  15  16
ENDBRANCH   3  15
TORSDOF 8
REMARK  Name = ../refined-set-2016/5er2/5er2_pocket.pdb
REMARK  283 active torsions:
REMARK  status: ('A' for Active; 'I' for Inactive)
REMARK    1  A    between atoms: _1  and  _3
REMARK    2  A    between atoms: _3  and  _4
REMARK    3  A    between atoms: _3  and  _6
REMARK    4  A    between atoms: _6  and  _7
REMARK    5  A    between atoms: _10  and  _12
REMARK    6  A    between atoms: _12  and  _13
REMARK    7  A    between atoms: _12  and  _15
REMARK    8  A    between atoms: _15  and  _16
REMARK    9  A    between atoms: _19  and  _21
REMARK   10  A    between atoms: _21  and  _22
REMARK   11  A    between atoms: _21  and  _24
REMARK   12  A    between atoms: _24  and  _25
REMARK   13  A    between atoms: _28  and  _30
REMARK   14  A    between atoms: _30  and  _31
REMARK   15  A    between atoms: _30  and  _33
REMARK   16  A    between atoms: _33  and  _34
REMARK   17  A    between atoms: _37  and  _39
REMARK   18  A    between atoms: _39  and  _40
REMARK   19  A    between atoms: _39  and  _42
REMARK   20  A    between atoms: _42  and  _43
REMARK   21  A    between atoms: _46  and  _48
REMARK   22  A    between atoms: _48  and  _49
REMARK   23  A    between atoms: _52  and  _54
REMARK   24  A    between atoms: _54  and  _55
REMARK   25  A    between atoms: _54  and  _57
REMARK   26  A    between atoms: _57  and  _58
REMARK   27  A    between atoms: _63  and  _64
REMARK   28  A    between atoms: _66  and  _68
REMARK   29  A    between atoms: _68  and  _69
REMARK   30  A    between atoms: _68  and  _71
REMARK   31  A    between atoms: _71  and  _72
REMARK   32  A    between atoms: _75  and  _77
REMARK   33  A    between atoms: _77  and  _78
REMARK   34  A    between atoms: _77  and  _80
REMARK   35  A    between atoms: _80  and  _81
REMARK   36  A    between atoms: _87  and  _89
REMARK   37  A    between atoms: _89  and  _90
REMARK   38  A    between atoms: _89  and  _92
REMARK   39  A    between atoms: _92  and  _93
REMARK   40  A    between atoms: _96  and  _98
REMARK   41  A    between atoms: _98  and  _99
REMARK   42  A    between atoms: _98  and  _101
REMARK   43  A    between atoms: _101  and  _102
REMARK   44  A    between atoms: _105  and  _107
REMARK   45  A    between atoms: _107  and  _108
REMARK   46  A    between atoms: _110  and  _112
REMARK   47  A    between atoms: _112  and  _113
REMARK   48  A    between atoms: _112  and  _115
REMARK   49  A    between atoms: _115  and  _116
REMARK   50  A    between atoms: _118  and  _120
REMARK   51  A    between atoms: _120  and  _121
REMARK   52  A    between atoms: _120  and  _123
REMARK   53  A    between atoms: _123  and  _124
REMARK   54  A    between atoms: _126  and  _128
REMARK   55  A    between atoms: _128  and  _129
REMARK   56  A    between atoms: _128  and  _131
REMARK   57  A    between atoms: _131  and  _132
REMARK   58  A    between atoms: _135  and  _137
REMARK   59  A    between atoms: _137  and  _138
REMARK   60  A    between atoms: _137  and  _140
REMARK   61  A    between atoms: _140  and  _141
REMARK   62  A    between atoms: _151  and  _153
REMARK   63  A    between atoms: _153  and  _154
REMARK   64  A    between atoms: _153  and  _156
REMARK   65  A    between atoms: _156  and  _157
REMARK   66  A    between atoms: _159  and  _161
REMARK   67  A    between atoms: _161  and  _162
REMARK   68  A    between atoms: _161  and  _164
REMARK   69  A    between atoms: _164  and  _165
REMARK   70  A    between atoms: _168  and  _170
REMARK   71  A    between atoms: _170  and  _171
REMARK   72  A    between atoms: _170  and  _173
REMARK   73  A    between atoms: _173  and  _174
REMARK   74  A    between atoms: _176  and  _178
REMARK   75  A    between atoms: _178  and  _179
REMARK   76  A    between atoms: _178  and  _181
REMARK   77  A    between atoms: _181  and  _182
REMARK   78  A    between atoms: _187  and  _188
REMARK   79  A    between atoms: _190  and  _192
REMARK   80  A    between atoms: _192  and  _193
REMARK   81  A    between atoms: _195  and  _197
REMARK   82  A    between atoms: _197  and  _198
REMARK   83  A    between atoms: _197  and  _200
REMARK   84  A    between atoms: _200  and  _201
REMARK   85  A    between atoms: _204  and  _206
REMARK   86  A    between atoms: _206  and  _207
REMARK   87  A    between atoms: _209  and  _211
REMARK   88  A    between atoms: _211  and  _212
REMARK   89  A    between atoms: _211  and  _214
REMARK   90  A    between atoms: _214  and  _215
REMARK   91  A    between atoms: _217  and  _219
REMARK   92  A    between atoms: _219  and  _220
REMARK   93  A    between atoms: _219  and  _222
REMARK   94  A    between atoms: _222  and  _223
REMARK   95  A    between atoms: _225  and  _227
REMARK   96  A    between atoms: _227  and  _228
REMARK   97  A    between atoms: _227  and  _230
REMARK   98  A    between atoms: _230  and  _231
REMARK   99  A    between atoms: _233  and  _235
REMARK  100  A    between atoms: _235  and  _236
REMARK  101  A    between atoms: _235  and  _238
REMARK  102  A    between atoms: _238  and  _239
REMARK  103  A    between atoms: _241  and  _243
REMARK  104  A    between atoms: _243  and  _244
REMARK  105  A    between atoms: _243  and  _246
REMARK  106  A    between atoms: _246  and  _247
REMARK  107  A    between atoms: _253  and  _255
REMARK  108  A    between atoms: _255  and  _256
REMARK  109  A    between atoms: _255  and  _258
REMARK  110  A    between atoms: _258  and  _259
REMARK  111  A    between atoms: _259  and  _260
REMARK  112  A    between atoms: _263  and  _265
REMARK  113  A    between atoms: _265  and  _266
REMARK  114  A    between atoms: _265  and  _268
REMARK  115  A    between atoms: _268  and  _269
REMARK  116  A    between atoms: _272  and  _274
REMARK  117  A    between atoms: _274  and  _275
REMARK  118  A    between atoms: _274  and  _277
REMARK  119  A    between atoms: _277  and  _278
REMARK  120  A    between atoms: _280  and  _282
REMARK  121  A    between atoms: _282  and  _283
REMARK  122  A    between atoms: _282  and  _285
REMARK  123  A    between atoms: _285  and  _286
REMARK  124  A    between atoms: _289  and  _291
REMARK  125  A    between atoms: _291  and  _292
REMARK  126  A    between atoms: _291  and  _294
REMARK  127  A    between atoms: _294  and  _295
REMARK  128  A    between atoms: _298  and  _300
REMARK  129  A    between atoms: _300  and  _301
REMARK  130  A    between atoms: _303  and  _305
REMARK  131  A    between atoms: _305  and  _306
REMARK  132  A    between atoms: _305  and  _308
REMARK  133  A    between atoms: _308  and  _309
REMARK  134  A    between atoms: _312  and  _314
REMARK  135  A    between atoms: _314  and  _315
REMARK  136  A    between atoms: _314  and  _317
REMARK  137  A    between atoms: _317  and  _318
REMARK  138  A    between atoms: _321  and  _323
REMARK  139  A    between atoms: _323  and  _324
REMARK  140  A    between atoms: _323  and  _326
REMARK  141  A    between atoms: _326  and  _327
REMARK  142  A    between atoms: _330  and  _332
REMARK  143  A    between atoms: _332  and  _333
REMARK  144  A    between atoms: _336  and  _338
REMARK  145  A    between atoms: _338  and  _339
REMARK  146  A    between atoms: _338  and  _341
REMARK  147  A    between atoms: _341  and  _342
REMARK  148  A    between atoms: _348  and  _350
REMARK  149  A    between atoms: _350  and  _351
REMARK  150  A    between atoms: _350  and  _353
REMARK  151  A    between atoms: _353  and  _354
REMARK  152  A    between atoms: _356  and  _358
REMARK  153  A    between atoms: _358  and  _359
REMARK  154  A    between atoms: _358  and  _361
REMARK  155  A    between atoms: _361  and  _362
REMARK  156  A    between atoms: _365  and  _367
REMARK  157  A    between atoms: _367  and  _368
REMARK  158  A    between atoms: _367  and  _370
REMARK  159  A    between atoms: _370  and  _371
REMARK  160  A    between atoms: _374  and  _376
REMARK  161  A    between atoms: _376  and  _377
REMARK  162  A    between atoms: _376  and  _379
REMARK  163  A    between atoms: _379  and  _380
REMARK  164  A    between atoms: _385  and  _387
REMARK  165  A    between atoms: _387  and  _388
REMARK  166  A    between atoms: _387  and  _390
REMARK  167  A    between atoms: _390  and  _391
REMARK  168  A    between atoms: _394  and  _396
REMARK  169  A    between atoms: _396  and  _397
REMARK  170  A    between atoms: _396  and  _399
REMARK  171  A    between atoms: _402  and  _404
REMARK  172  A    between atoms: _404  and  _405
REMARK  173  A    between atoms: _404  and  _407
REMARK  174  A    between atoms: _407  and  _408
REMARK  175  A    between atoms: _408  and  _409
REMARK  176  A    between atoms: _414  and  _416
REMARK  177  A    between atoms: _416  and  _417
REMARK  178  A    between atoms: _416  and  _419
REMARK  179  A    between atoms: _419  and  _420
REMARK  180  A    between atoms: _420  and  _421
REMARK  181  A    between atoms: _426  and  _428
REMARK  182  A    between atoms: _428  and  _429
REMARK  183  A    between atoms: _428  and  _431
REMARK  184  A    between atoms: _431  and  _432
REMARK  185  A    between atoms: _438  and  _440
REMARK  186  A    between atoms: _440  and  _441
REMARK  187  A    between atoms: _440  and  _443
REMARK  188  A    between atoms: _443  and  _444
REMARK  189  A    between atoms: _454  and  _456
REMARK  190  A    between atoms: _456  and  _457
REMARK  191  A    between atoms: _459  and  _461
REMARK  192  A    between atoms: _461  and  _462
REMARK  193  A    between atoms: _461  and  _464
REMARK  194  A    between atoms: _464  and  _465
REMARK  195  A    between atoms: _468  and  _470
REMARK  196  A    between atoms: _470  and  _471
REMARK  197  A    between atoms: _474  and  _476
REMARK  198  A    between atoms: _476  and  _477
REMARK  199  A    between atoms: _476  and  _479
REMARK  200  A    between atoms: _479  and  _480
REMARK  201  A    between atoms: _483  and  _485
REMARK  202  A    between atoms: _485  and  _486
REMARK  203  A    between atoms: _485  and  _488
REMARK  204  A    between atoms: _488  and  _489
REMARK  205  A    between atoms: _492  and  _494
REMARK  206  A    between atoms: _494  and  _495
REMARK  207  A    between atoms: _497  and  _499
REMARK  208  A    between atoms: _499  and  _500
REMARK  209  A    between atoms: _499  and  _502
REMARK  210  A    between atoms: _502  and  _503
REMARK  211  A    between atoms: _506  and  _508
REMARK  212  A    between atoms: _508  and  _509
REMARK  213  A    between atoms: _508  and  _511
REMARK  214  A    between atoms: _511  and  _512
REMARK  215  A    between atoms: _515  and  _517
REMARK  216  A    between atoms: _517  and  _518
REMARK  217  A    between atoms: _517  and  _520
REMARK  218  A    between atoms: _520  and  _521
REMARK  219  A    between atoms: _524  and  _526
REMARK  220  A    between atoms: _526  and  _527
REMARK  221  A    between atoms: _526  and  _529
REMARK  222  A    between atoms: _529  and  _530
REMARK  223  A    between atoms: _533  and  _535
REMARK  224  A    between atoms: _535  and  _536
REMARK  225  A    between atoms: _535  and  _538
REMARK  226  A    between atoms: _538  and  _539
REMARK  227  A    between atoms: _544  and  _545
REMARK  228  A    between atoms: _547  and  _549
REMARK  229  A    between atoms: _549  and  _550
REMARK  230  A    between atoms: _549  and  _552
REMARK  231  A    between atoms: _555  and  _557
REMARK  232  A    between atoms: _557  and  _558
REMARK  233  A    between atoms: _560  and  _562
REMARK  234  A    between atoms: _562  and  _563
REMARK  235  A    between atoms: _562  and  _565
REMARK  236  A    between atoms: _565  and  _566
REMARK  237  A    between atoms: _572  and  _574
REMARK  238  A    between atoms: _574  and  _575
REMARK  239  A    between atoms: _574  and  _577
REMARK  240  A    between atoms: _577  and  _578
REMARK  241  A    between atoms: _584  and  _586
REMARK  242  A    between atoms: _586  and  _587
REMARK  243  A    between atoms: _589  and  _591
REMARK  244  A    between atoms: _591  and  _592
REMARK  245  A    between atoms: _594  and  _596
REMARK  246  A    between atoms: _596  and  _597
REMARK  247  A    between atoms: _596  and  _599
REMARK  248  A    between atoms: _599  and  _600
REMARK  249  A    between atoms: _600  and  _601
REMARK  250  A    between atoms: _606  and  _608
REMARK  251  A    between atoms: _608  and  _609
REMARK  252  A    between atoms: _608  and  _611
REMARK  253  A    between atoms: _611  and  _612
REMARK  254  A    between atoms: _614  and  _616
REMARK  255  A    between atoms: _616  and  _617
REMARK  256  A    between atoms: _619  and  _621
REMARK  257  A    between atoms: _621  and  _622
REMARK  258  A    between atoms: _621  and  _624
REMARK  259  A    between atoms: _624  and  _625
REMARK  260  A    between atoms: _628  and  _630
REMARK  261  A    between atoms: _630  and  _631
REMARK  262  A    between atoms: _633  and  _635
REMARK  263  A    between atoms: _635  and  _636
REMARK  264  A    between atoms: _635  and  _638
REMARK  265  A    between atoms: _638  and  _639
REMARK  266  A    between atoms: _642  and  _644
REMARK  267  A    between atoms: _644  and  _645
REMARK  268  A    between atoms: _644  and  _647
REMARK  269  A    between atoms: _647  and  _648
REMARK  270  A    between atoms: _653  and  _655
REMARK  271  A    between atoms: _655  and  _656
REMARK  272  A    between atoms: _655  and  _658
REMARK  273  A    between atoms: _658  and  _659
REMARK  274  A    between atoms: _662  and  _664
REMARK  275  A    between atoms: _664  and  _665
REMARK  276  A    between atoms: _664  and  _667
REMARK  277  A    between atoms: _667  and  _668
REMARK  278  A    between atoms: _674  and  _676
REMARK  279  A    between atoms: _676  and  _677
REMARK  280  A    between atoms: _679  and  _681
REMARK  281  A    between atoms: _681  and  _682
REMARK  282  A    between atoms: _681  and  _684
REMARK  283  A    between atoms: _684  and  _685
REMARK                            x       y       z     vdW  Elec       q    Type
REMARK                         _______ _______ _______ _____ _____    ______ ____
ROOT
ATOM      1  CB  GLN A   1      -5.588  22.529  15.141  0.00  0.00    +0.035 C 
ENDROOT
BRANCH   1   2
ATOM      2  CA  GLN A   1      -6.225  21.888  13.909  0.00  0.00    +0.134 C 
BRANCH   2   3
ATOM      3  N   GLN A   1      -5.220  21.173  13.110  0.00  0.00    -0.239 NA
ATOM      4  H   GLN A   1      -4.612  21.701  12.452  0.00  0.00    +0.142 HD
ENDBRANCH   2   3
BRANCH   2   5
ATOM      5  C   GLN A   1      -6.919  22.951  13.077  0.00  0.00    +0.224 C 
ATOM      6  O   GLN A   1      -6.431  23.321  12.009  0.00  0.00    -0.287 OA
ENDBRANCH   2   5
ENDBRANCH   1   2
BRANCH   1   7
ATOM      7  CG  GLN A   1      -4.768  21.502  15.929  0.00  0.00    +0.087 C 
BRANCH   7   8
ATOM      8  CD  GLN A   1      -5.672  20.603  16.771  0.00  0.00    +0.219 C 
ATOM      9  NE2 GLN A   1      -5.188  19.575  17.462  0.00  0.00    -0.329 N 
ATOM     10 HE21 GLN A   1      -5.827  18.984  18.031  0.00  0.00    +0.145 HD
ATOM     11 HE22 GLN A   1      -4.170  19.362  17.433  0.00  0.00    +0.145 HD
ATOM     12  OE1 GLN A   1      -6.978  20.853  16.826  0.00  0.00    -0.275 OA
ENDBRANCH   7   8
ENDBRANCH   1   7
TORSDOF 5
REMARK  Name = ../refined-set-2016/5er2/5er2_pocket.pdb
REMARK  283 active torsions:
REMARK  status: ('A' for Active; 'I' for Inactive)
REMARK    1  A    between atoms: _1  and  _3
REMARK    2  A    between atoms: _3  and  _4
REMARK    3  A    between atoms: _3  and  _6
REMARK    4  A    between atoms: _6  and  _7
REMARK    5  A    between atoms: _10  and  _12
REMARK    6  A    between atoms: _12  and  _13
REMARK    7  A    between atoms: _12  and  _15
REMARK    8  A    between atoms: _15  and  _16
REMARK    9  A    between atoms: _19  and  _21
REMARK   10  A    between atoms: _21  and  _22
REMARK   11  A    between atoms: _21  and  _24
REMARK   12  A    between atoms: _24  and  _25
REMARK   13  A    between atoms: _28  and  _30
REMARK   14  A    between atoms: _30  and  _31
REMARK   15  A    between atoms: _30  and  _33
REMARK   16  A    between atoms: _33  and  _34
REMARK   17  A    between atoms: _37  and  _39
REMARK   18  A    between atoms: _39  and  _40
REMARK   19  A    between atoms: _39  and  _42
REMARK   20  A    between atoms: _42  and  _43
REMARK   21  A    between atoms: _46  and  _48
REMARK   22  A    between atoms: _48  and  _49
REMARK   23  A    between atoms: _52  and  _54
REMARK   24  A    between atoms: _54  and  _55
REMARK   25  A    between atoms: _54  and  _57
REMARK   26  A    between atoms: _57  and  _58
REMARK   27  A    between atoms: _63  and  _64
REMARK   28  A    between atoms: _66  and  _68
REMARK   29  A    between atoms: _68  and  _69
REMARK   30  A    between atoms: _68  and  _71
REMARK   31  A    between atoms: _71  and  _72
REMARK   32  A    between atoms: _75  and  _77
REMARK   33  A    between atoms: _77  and  _78
REMARK   34  A    between atoms: _77  and  _80
REMARK   35  A    between atoms: _80  and  _81
REMARK   36  A    between atoms: _87  and  _89
REMARK   37  A    between atoms: _89  and  _90
REMARK   38  A    between atoms: _89  and  _92
REMARK   39  A    between atoms: _92  and  _93
REMARK   40  A    between atoms: _96  and  _98
REMARK   41  A    between atoms: _98  and  _99
REMARK   42  A    between atoms: _98  and  _101
REMARK   43  A    between atoms: _101  and  _102
REMARK   44  A    between atoms: _105  and  _107
REMARK   45  A    between atoms: _107  and  _108
REMARK   46  A    between atoms: _110  and  _112
REMARK   47  A    between atoms: _112  and  _113
REMARK   48  A    between atoms: _112  and  _115
REMARK   49  A    between atoms: _115  and  _116
REMARK   50  A    between atoms: _118  and  _120
REMARK   51  A    between atoms: _120  and  _121
REMARK   52  A    between atoms: _120  and  _123
REMARK   53  A    between atoms: _123  and  _124
REMARK   54  A    between atoms: _126  and  _128
REMARK   55  A    between atoms: _128  and  _129
REMARK   56  A    between atoms: _128  and  _131
REMARK   57  A    between atoms: _131  and  _132
REMARK   58  A    between atoms: _135  and  _137
REMARK   59  A    between atoms: _137  and  _138
REMARK   60  A    between atoms: _137  and  _140
REMARK   61  A    between atoms: _140  and  _141
REMARK   62  A    between atoms: _151  and  _153
REMARK   63  A    between atoms: _153  and  _154
REMARK   64  A    between atoms: _153  and  _156
REMARK   65  A    between atoms: _156  and  _157
REMARK   66  A    between atoms: _159  and  _161
REMARK   67  A    between atoms: _161  and  _162
REMARK   68  A    between atoms: _161  and  _164
REMARK   69  A    between atoms: _164  and  _165
REMARK   70  A    between atoms: _168  and  _170
REMARK   71  A    between atoms: _170  and  _171
REMARK   72  A    between atoms: _170  and  _173
REMARK   73  A    between atoms: _173  and  _174
REMARK   74  A    between atoms: _176  and  _178
REMARK   75  A    between atoms: _178  and  _179
REMARK   76  A    between atoms: _178  and  _181
REMARK   77  A    between atoms: _181  and  _182
REMARK   78  A    between atoms: _187  and  _188
REMARK   79  A    between atoms: _190  and  _192
REMARK   80  A    between atoms: _192  and  _193
REMARK   81  A    between atoms: _195  and  _197
REMARK   82  A    between atoms: _197  and  _198
REMARK   83  A    between atoms: _197  and  _200
REMARK   84  A    between atoms: _200  and  _201
REMARK   85  A    between atoms: _204  and  _206
REMARK   86  A    between atoms: _206  and  _207
REMARK   87  A    between atoms: _209  and  _211
REMARK   88  A    between atoms: _211  and  _212
REMARK   89  A    between atoms: _211  and  _214
REMARK   90  A    between atoms: _214  and  _215
REMARK   91  A    between atoms: _217  and  _219
REMARK   92  A    between atoms: _219  and  _220
REMARK   93  A    between atoms: _219  and  _222
REMARK   94  A    between atoms: _222  and  _223
REMARK   95  A    between atoms: _225  and  _227
REMARK   96  A    between atoms: _227  and  _228
REMARK   97  A    between atoms: _227  and  _230
REMARK   98  A    between atoms: _230  and  _231
REMARK   99  A    between atoms: _233  and  _235
REMARK  100  A    between atoms: _235  and  _236
REMARK  101  A    between atoms: _235  and  _238
REMARK  102  A    between atoms: _238  and  _239
REMARK  103  A    between atoms: _241  and  _243
REMARK  104  A    between atoms: _243  and  _244
REMARK  105  A    between atoms: _243  and  _246
REMARK  106  A    between atoms: _246  and  _247
REMARK  107  A    between atoms: _253  and  _255
REMARK  108  A    between atoms: _255  and  _256
REMARK  109  A    between atoms: _255  and  _258
REMARK  110  A    between atoms: _258  and  _259
REMARK  111  A    between atoms: _259  and  _260
REMARK  112  A    between atoms: _263  and  _265
REMARK  113  A    between atoms: _265  and  _266
REMARK  114  A    between atoms: _265  and  _268
REMARK  115  A    between atoms: _268  and  _269
REMARK  116  A    between atoms: _272  and  _274
REMARK  117  A    between atoms: _274  and  _275
REMARK  118  A    between atoms: _274  and  _277
REMARK  119  A    between atoms: _277  and  _278
REMARK  120  A    between atoms: _280  and  _282
REMARK  121  A    between atoms: _282  and  _283
REMARK  122  A    between atoms: _282  and  _285
REMARK  123  A    between atoms: _285  and  _286
REMARK  124  A    between atoms: _289  and  _291
REMARK  125  A    between atoms: _291  and  _292
REMARK  126  A    between atoms: _291  and  _294
REMARK  127  A    between atoms: _294  and  _295
REMARK  128  A    between atoms: _298  and  _300
REMARK  129  A    between atoms: _300  and  _301
REMARK  130  A    between atoms: _303  and  _305
REMARK  131  A    between atoms: _305  and  _306
REMARK  132  A    between atoms: _305  and  _308
REMARK  133  A    between atoms: _308  and  _309
REMARK  134  A    between atoms: _312  and  _314
REMARK  135  A    between atoms: _314  and  _315
REMARK  136  A    between atoms: _314  and  _317
REMARK  137  A    between atoms: _317  and  _318
REMARK  138  A    between atoms: _321  and  _323
REMARK  139  A    between atoms: _323  and  _324
REMARK  140  A    between atoms: _323  and  _326
REMARK  141  A    between atoms: _326  and  _327
REMARK  142  A    between atoms: _330  and  _332
REMARK  143  A    between atoms: _332  and  _333
REMARK  144  A    between atoms: _336  and  _338
REMARK  145  A    between atoms: _338  and  _339
REMARK  146  A    between atoms: _338  and  _341
REMARK  147  A    between atoms: _341  and  _342
REMARK  148  A    between atoms: _348  and  _350
REMARK  149  A    between atoms: _350  and  _351
REMARK  150  A    between atoms: _350  and  _353
REMARK  151  A    between atoms: _353  and  _354
REMARK  152  A    between atoms: _356  and  _358
REMARK  153  A    between atoms: _358  and  _359
REMARK  154  A    between atoms: _358  and  _361
REMARK  155  A    between atoms: _361  and  _362
REMARK  156  A    between atoms: _365  and  _367
REMARK  157  A    between atoms: _367  and  _368
REMARK  158  A    between atoms: _367  and  _370
REMARK  159  A    between atoms: _370  and  _371
REMARK  160  A    between atoms: _374  and  _376
REMARK  161  A    between atoms: _376  and  _377
REMARK  162  A    between atoms: _376  and  _379
REMARK  163  A    between atoms: _379  and  _380
REMARK  164  A    between atoms: _385  and  _387
REMARK  165  A    between atoms: _387  and  _388
REMARK  166  A    between atoms: _387  and  _390
REMARK  167  A    between atoms: _390  and  _391
REMARK  168  A    between atoms: _394  and  _396
REMARK  169  A    between atoms: _396  and  _397
REMARK  170  A    between atoms: _396  and  _399
REMARK  171  A    between atoms: _402  and  _404
REMARK  172  A    between atoms: _404  and  _405
REMARK  173  A    between atoms: _404  and  _407
REMARK  174  A    between atoms: _407  and  _408
REMARK  175  A    between atoms: _408  and  _409
REMARK  176  A    between atoms: _414  and  _416
REMARK  177  A    between atoms: _416  and  _417
REMARK  178  A    between atoms: _416  and  _419
REMARK  179  A    between atoms: _419  and  _420
REMARK  180  A    between atoms: _420  and  _421
REMARK  181  A    between atoms: _426  and  _428
REMARK  182  A    between atoms: _428  and  _429
REMARK  183  A    between atoms: _428  and  _431
REMARK  184  A    between atoms: _431  and  _432
REMARK  185  A    between atoms: _438  and  _440
REMARK  186  A    between atoms: _440  and  _441
REMARK  187  A    between atoms: _440  and  _443
REMARK  188  A    between atoms: _443  and  _444
REMARK  189  A    between atoms: _454  and  _456
REMARK  190  A    between atoms: _456  and  _457
REMARK  191  A    between atoms: _459  and  _461
REMARK  192  A    between atoms: _461  and  _462
REMARK  193  A    between atoms: _461  and  _464
REMARK  194  A    between atoms: _464  and  _465
REMARK  195  A    between atoms: _468  and  _470
REMARK  196  A    between atoms: _470  and  _471
REMARK  197  A    between atoms: _474  and  _476
REMARK  198  A    between atoms: _476  and  _477
REMARK  199  A    between atoms: _476  and  _479
REMARK  200  A    between atoms: _479  and  _480
REMARK  201  A    between atoms: _483  and  _485
REMARK  202  A    between atoms: _485  and  _486
REMARK  203  A    between atoms: _485  and  _488
REMARK  204  A    between atoms: _488  and  _489
REMARK  205  A    between atoms: _492  and  _494
REMARK  206  A    between atoms: _494  and  _495
REMARK  207  A    between atoms: _497  and  _499
REMARK  208  A    between atoms: _499  and  _500
REMARK  209  A    between atoms: _499  and  _502
REMARK  210  A    between atoms: _502  and  _503
REMARK  211  A    between atoms: _506  and  _508
REMARK  212  A    between atoms: _508  and  _509
REMARK  213  A    between atoms: _508  and  _511
REMARK  214  A    between atoms: _511  and  _512
REMARK  215  A    between atoms: _515  and  _517
REMARK  216  A    between atoms: _517  and  _518
REMARK  217  A    between atoms: _517  and  _520
REMARK  218  A    between atoms: _520  and  _521
REMARK  219  A    between atoms: _524  and  _526
REMARK  220  A    between atoms: _526  and  _527
REMARK  221  A    between atoms: _526  and  _529
REMARK  222  A    between atoms: _529  and  _530
REMARK  223  A    between atoms: _533  and  _535
REMARK  224  A    between atoms: _535  and  _536
REMARK  225  A    between atoms: _535  and  _538
REMARK  226  A    between atoms: _538  and  _539
REMARK  227  A    between atoms: _544  and  _545
REMARK  228  A    between atoms: _547  and  _549
REMARK  229  A    between atoms: _549  and  _550
REMARK  230  A    between atoms: _549  and  _552
REMARK  231  A    between atoms: _555  and  _557
REMARK  232  A    between atoms: _557  and  _558
REMARK  233  A    between atoms: _560  and  _562
REMARK  234  A    between atoms: _562  and  _563
REMARK  235  A    between atoms: _562  and  _565
REMARK  236  A    between atoms: _565  and  _566
REMARK  237  A    between atoms: _572  and  _574
REMARK  238  A    between atoms: _574  and  _575
REMARK  239  A    between atoms: _574  and  _577
REMARK  240  A    between atoms: _577  and  _578
REMARK  241  A    between atoms: _584  and  _586
REMARK  242  A    between atoms: _586  and  _587
REMARK  243  A    between atoms: _589  and  _591
REMARK  244  A    between atoms: _591  and  _592
REMARK  245  A    between atoms: _594  and  _596
REMARK  246  A    between atoms: _596  and  _597
REMARK  247  A    between atoms: _596  and  _599
REMARK  248  A    between atoms: _599  and  _600
REMARK  249  A    between atoms: _600  and  _601
REMARK  250  A    between atoms: _606  and  _608
REMARK  251  A    between atoms: _608  and  _609
REMARK  252  A    between atoms: _608  and  _611
REMARK  253  A    between atoms: _611  and  _612
REMARK  254  A    between atoms: _614  and  _616
REMARK  255  A    between atoms: _616  and  _617
REMARK  256  A    between atoms: _619  and  _621
REMARK  257  A    between atoms: _621  and  _622
REMARK  258  A    between atoms: _621  and  _624
REMARK  259  A    between atoms: _624  and  _625
REMARK  260  A    between atoms: _628  and  _630
REMARK  261  A    between atoms: _630  and  _631
REMARK  262  A    between atoms: _633  and  _635
REMARK  263  A    between atoms: _635  and  _636
REMARK  264  A    between atoms: _635  and  _638
REMARK  265  A    between atoms: _638  and  _639
REMARK  266  A    between atoms: _642  and  _644
REMARK  267  A    between atoms: _644  and  _645
REMARK  268  A    between atoms: _644  and  _647
REMARK  269  A    between atoms: _647  and  _648
REMARK  270  A    between atoms: _653  and  _655
REMARK  271  A    between atoms: _655  and  _656
REMARK  272  A    between atoms: _655  and  _658
REMARK  273  A    between atoms: _658  and  _659
REMARK  274  A    between atoms: _662  and  _664
REMARK  275  A    between atoms: _664  and  _665
REMARK  276  A    between atoms: _664  and  _667
REMARK  277  A    between atoms: _667  and  _668
REMARK  278  A    between atoms: _674  and  _676
REMARK  279  A    between atoms: _676  and  _677
REMARK  280  A    between atoms: _679  and  _681
REMARK  281  A    between atoms: _681  and  _682
REMARK  282  A    between atoms: _681  and  _684
REMARK  283  A    between atoms: _684  and  _685
REMARK                            x       y       z     vdW  Elec       q    Type
REMARK                         _______ _______ _______ _____ _____    ______ ____
ROOT
ATOM      1  CA  SER A   1      -7.802  27.798  11.484  0.00  0.00    +0.163 C 
ENDROOT
BRANCH   1   2
ATOM      2  N   SER A   1      -8.376  26.457  11.677  0.00  0.00    -0.237 NA
ATOM      3  H   SER A   1      -8.857  26.018  10.866  0.00  0.00    +0.142 HD
ENDBRANCH   1   2
BRANCH   1   4
ATOM      4  CB  SER A   1      -8.828  28.873  11.816  0.00  0.00    +0.227 C 
ATOM      5  OG  SER A   1      -8.544  30.063  11.689  0.00  0.00    -0.287 OA
ENDBRANCH   1   4
BRANCH   1   6
ATOM      6  C   SER A   1      -7.312  27.975  10.061  0.00  0.00    +0.162 C 
BRANCH   6   7
ATOM      7  O   SER A   1      -8.432  27.894   9.170  0.00  0.00    -0.380 OA
ATOM      8  H   SER A   1      -8.866  27.010   9.267  0.00  0.00    +0.211 HD
ENDBRANCH   6   7
ENDBRANCH   1   6
TORSDOF 4
REMARK  Name = ../refined-set-2016/5er2/5er2_pocket.pdb
REMARK  283 active torsions:
REMARK  status: ('A' for Active; 'I' for Inactive)
REMARK    1  A    between atoms: _1  and  _3
REMARK    2  A    between atoms: _3  and  _4
REMARK    3  A    between atoms: _3  and  _6
REMARK    4  A    between atoms: _6  and  _7
REMARK    5  A    between atoms: _10  and  _12
REMARK    6  A    between atoms: _12  and  _13
REMARK    7  A    between atoms: _12  and  _15
REMARK    8  A    between atoms: _15  and  _16
REMARK    9  A    between atoms: _19  and  _21
REMARK   10  A    between atoms: _21  and  _22
REMARK   11  A    between atoms: _21  and  _24
REMARK   12  A    between atoms: _24  and  _25
REMARK   13  A    between atoms: _28  and  _30
REMARK   14  A    between atoms: _30  and  _31
REMARK   15  A    between atoms: _30  and  _33
REMARK   16  A    between atoms: _33  and  _34
REMARK   17  A    between atoms: _37  and  _39
REMARK   18  A    between atoms: _39  and  _40
REMARK   19  A    between atoms: _39  and  _42
REMARK   20  A    between atoms: _42  and  _43
REMARK   21  A    between atoms: _46  and  _48
REMARK   22  A    between atoms: _48  and  _49
REMARK   23  A    between atoms: _52  and  _54
REMARK   24  A    between atoms: _54  and  _55
REMARK   25  A    between atoms: _54  and  _57
REMARK   26  A    between atoms: _57  and  _58
REMARK   27  A    between atoms: _63  and  _64
REMARK   28  A    between atoms: _66  and  _68
REMARK   29  A    between atoms: _68  and  _69
REMARK   30  A    between atoms: _68  and  _71
REMARK   31  A    between atoms: _71  and  _72
REMARK   32  A    between atoms: _75  and  _77
REMARK   33  A    between atoms: _77  and  _78
REMARK   34  A    between atoms: _77  and  _80
REMARK   35  A    between atoms: _80  and  _81
REMARK   36  A    between atoms: _87  and  _89
REMARK   37  A    between atoms: _89  and  _90
REMARK   38  A    between atoms: _89  and  _92
REMARK   39  A    between atoms: _92  and  _93
REMARK   40  A    between atoms: _96  and  _98
REMARK   41  A    between atoms: _98  and  _99
REMARK   42  A    between atoms: _98  and  _101
REMARK   43  A    between atoms: _101  and  _102
REMARK   44  A    between atoms: _105  and  _107
REMARK   45  A    between atoms: _107  and  _108
REMARK   46  A    between atoms: _110  and  _112
REMARK   47  A    between atoms: _112  and  _113
REMARK   48  A    between atoms: _112  and  _115
REMARK   49  A    between atoms: _115  and  _116
REMARK   50  A    between atoms: _118  and  _120
REMARK   51  A    between atoms: _120  and  _121
REMARK   52  A    between atoms: _120  and  _123
REMARK   53  A    between atoms: _123  and  _124
REMARK   54  A    between atoms: _126  and  _128
REMARK   55  A    between atoms: _128  and  _129
REMARK   56  A    between atoms: _128  and  _131
REMARK   57  A    between atoms: _131  and  _132
REMARK   58  A    between atoms: _135  and  _137
REMARK   59  A    between atoms: _137  and  _138
REMARK   60  A    between atoms: _137  and  _140
REMARK   61  A    between atoms: _140  and  _141
REMARK   62  A    between atoms: _151  and  _153
REMARK   63  A    between atoms: _153  and  _154
REMARK   64  A    between atoms: _153  and  _156
REMARK   65  A    between atoms: _156  and  _157
REMARK   66  A    between atoms: _159  and  _161
REMARK   67  A    between atoms: _161  and  _162
REMARK   68  A    between atoms: _161  and  _164
REMARK   69  A    between atoms: _164  and  _165
REMARK   70  A    between atoms: _168  and  _170
REMARK   71  A    between atoms: _170  and  _171
REMARK   72  A    between atoms: _170  and  _173
REMARK   73  A    between atoms: _173  and  _174
REMARK   74  A    between atoms: _176  and  _178
REMARK   75  A    between atoms: _178  and  _179
REMARK   76  A    between atoms: _178  and  _181
REMARK   77  A    between atoms: _181  and  _182
REMARK   78  A    between atoms: _187  and  _188
REMARK   79  A    between atoms: _190  and  _192
REMARK   80  A    between atoms: _192  and  _193
REMARK   81  A    between atoms: _195  and  _197
REMARK   82  A    between atoms: _197  and  _198
REMARK   83  A    between atoms: _197  and  _200
REMARK   84  A    between atoms: _200  and  _201
REMARK   85  A    between atoms: _204  and  _206
REMARK   86  A    between atoms: _206  and  _207
REMARK   87  A    between atoms: _209  and  _211
REMARK   88  A    between atoms: _211  and  _212
REMARK   89  A    between atoms: _211  and  _214
REMARK   90  A    between atoms: _214  and  _215
REMARK   91  A    between atoms: _217  and  _219
REMARK   92  A    between atoms: _219  and  _220
REMARK   93  A    between atoms: _219  and  _222
REMARK   94  A    between atoms: _222  and  _223
REMARK   95  A    between atoms: _225  and  _227
REMARK   96  A    between atoms: _227  and  _228
REMARK   97  A    between atoms: _227  and  _230
REMARK   98  A    between atoms: _230  and  _231
REMARK   99  A    between atoms: _233  and  _235
REMARK  100  A    between atoms: _235  and  _236
REMARK  101  A    between atoms: _235  and  _238
REMARK  102  A    between atoms: _238  and  _239
REMARK  103  A    between atoms: _241  and  _243
REMARK  104  A    between atoms: _243  and  _244
REMARK  105  A    between atoms: _243  and  _246
REMARK  106  A    between atoms: _246  and  _247
REMARK  107  A    between atoms: _253  and  _255
REMARK  108  A    between atoms: _255  and  _256
REMARK  109  A    between atoms: _255  and  _258
REMARK  110  A    between atoms: _258  and  _259
REMARK  111  A    between atoms: _259  and  _260
REMARK  112  A    between atoms: _263  and  _265
REMARK  113  A    between atoms: _265  and  _266
REMARK  114  A    between atoms: _265  and  _268
REMARK  115  A    between atoms: _268  and  _269
REMARK  116  A    between atoms: _272  and  _274
REMARK  117  A    between atoms: _274  and  _275
REMARK  118  A    between atoms: _274  and  _277
REMARK  119  A    between atoms: _277  and  _278
REMARK  120  A    between atoms: _280  and  _282
REMARK  121  A    between atoms: _282  and  _283
REMARK  122  A    between atoms: _282  and  _285
REMARK  123  A    between atoms: _285  and  _286
REMARK  124  A    between atoms: _289  and  _291
REMARK  125  A    between atoms: _291  and  _292
REMARK  126  A    between atoms: _291  and  _294
REMARK  127  A    between atoms: _294  and  _295
REMARK  128  A    between atoms: _298  and  _300
REMARK  129  A    between atoms: _300  and  _301
REMARK  130  A    between atoms: _303  and  _305
REMARK  131  A    between atoms: _305  and  _306
REMARK  132  A    between atoms: _305  and  _308
REMARK  133  A    between atoms: _308  and  _309
REMARK  134  A    between atoms: _312  and  _314
REMARK  135  A    between atoms: _314  and  _315
REMARK  136  A    between atoms: _314  and  _317
REMARK  137  A    between atoms: _317  and  _318
REMARK  138  A    between atoms: _321  and  _323
REMARK  139  A    between atoms: _323  and  _324
REMARK  140  A    between atoms: _323  and  _326
REMARK  141  A    between atoms: _326  and  _327
REMARK  142  A    between atoms: _330  and  _332
REMARK  143  A    between atoms: _332  and  _333
REMARK  144  A    between atoms: _336  and  _338
REMARK  145  A    between atoms: _338  and  _339
REMARK  146  A    between atoms: _338  and  _341
REMARK  147  A    between atoms: _341  and  _342
REMARK  148  A    between atoms: _348  and  _350
REMARK  149  A    between atoms: _350  and  _351
REMARK  150  A    between atoms: _350  and  _353
REMARK  151  A    between atoms: _353  and  _354
REMARK  152  A    between atoms: _356  and  _358
REMARK  153  A    between atoms: _358  and  _359
REMARK  154  A    between atoms: _358  and  _361
REMARK  155  A    between atoms: _361  and  _362
REMARK  156  A    between atoms: _365  and  _367
REMARK  157  A    between atoms: _367  and  _368
REMARK  158  A    between atoms: _367  and  _370
REMARK  159  A    between atoms: _370  and  _371
REMARK  160  A    between atoms: _374  and  _376
REMARK  161  A    between atoms: _376  and  _377
REMARK  162  A    between atoms: _376  and  _379
REMARK  163  A    between atoms: _379  and  _380
REMARK  164  A    between atoms: _385  and  _387
REMARK  165  A    between atoms: _387  and  _388
REMARK  166  A    between atoms: _387  and  _390
REMARK  167  A    between atoms: _390  and  _391
REMARK  168  A    between atoms: _394  and  _396
REMARK  169  A    between atoms: _396  and  _397
REMARK  170  A    between atoms: _396  and  _399
REMARK  171  A    between atoms: _402  and  _404
REMARK  172  A    between atoms: _404  and  _405
REMARK  173  A    between atoms: _404  and  _407
REMARK  174  A    between atoms: _407  and  _408
REMARK  175  A    between atoms: _408  and  _409
REMARK  176  A    between atoms: _414  and  _416
REMARK  177  A    between atoms: _416  and  _417
REMARK  178  A    between atoms: _416  and  _419
REMARK  179  A    between atoms: _419  and  _420
REMARK  180  A    between atoms: _420  and  _421
REMARK  181  A    between atoms: _426  and  _428
REMARK  182  A    between atoms: _428  and  _429
REMARK  183  A    between atoms: _428  and  _431
REMARK  184  A    between atoms: _431  and  _432
REMARK  185  A    between atoms: _438  and  _440
REMARK  186  A    between atoms: _440  and  _441
REMARK  187  A    between atoms: _440  and  _443
REMARK  188  A    between atoms: _443  and  _444
REMARK  189  A    between atoms: _454  and  _456
REMARK  190  A    between atoms: _456  and  _457
REMARK  191  A    between atoms: _459  and  _461
REMARK  192  A    between atoms: _461  and  _462
REMARK  193  A    between atoms: _461  and  _464
REMARK  194  A    between atoms: _464  and  _465
REMARK  195  A    between atoms: _468  and  _470
REMARK  196  A    between atoms: _470  and  _471
REMARK  197  A    between atoms: _474  and  _476
REMARK  198  A    between atoms: _476  and  _477
REMARK  199  A    between atoms: _476  and  _479
REMARK  200  A    between atoms: _479  and  _480
REMARK  201  A    between atoms: _483  and  _485
REMARK  202  A    between atoms: _485  and  _486
REMARK  203  A    between atoms: _485  and  _488
REMARK  204  A    between atoms: _488  and  _489
REMARK  205  A    between atoms: _492  and  _494
REMARK  206  A    between atoms: _494  and  _495
REMARK  207  A    between atoms: _497  and  _499
REMARK  208  A    between atoms: _499  and  _500
REMARK  209  A    between atoms: _499  and  _502
REMARK  210  A    between atoms: _502  and  _503
REMARK  211  A    between atoms: _506  and  _508
REMARK  212  A    between atoms: _508  and  _509
REMARK  213  A    between atoms: _508  and  _511
REMARK  214  A    between atoms: _511  and  _512
REMARK  215  A    between atoms: _515  and  _517
REMARK  216  A    between atoms: _517  and  _518
REMARK  217  A    between atoms: _517  and  _520
REMARK  218  A    between atoms: _520  and  _521
REMARK  219  A    between atoms: _524  and  _526
REMARK  220  A    between atoms: _526  and  _527
REMARK  221  A    between atoms: _526  and  _529
REMARK  222  A    between atoms: _529  and  _530
REMARK  223  A    between atoms: _533  and  _535
REMARK  224  A    between atoms: _535  and  _536
REMARK  225  A    between atoms: _535  and  _538
REMARK  226  A    between atoms: _538  and  _539
REMARK  227  A    between atoms: _544  and  _545
REMARK  228  A    between atoms: _547  and  _549
REMARK  229  A    between atoms: _549  and  _550
REMARK  230  A    between atoms: _549  and  _552
REMARK  231  A    between atoms: _555  and  _557
REMARK  232  A    between atoms: _557  and  _558
REMARK  233  A    between atoms: _560  and  _562
REMARK  234  A    between atoms: _562  and  _563
REMARK  235  A    between atoms: _562  and  _565
REMARK  236  A    between atoms: _565  and  _566
REMARK  237  A    between atoms: _572  and  _574
REMARK  238  A    between atoms: _574  and  _575
REMARK  239  A    between atoms: _574  and  _577
REMARK  240  A    between atoms: _577  and  _578
REMARK  241  A    between atoms: _584  and  _586
REMARK  242  A    between atoms: _586  and  _587
REMARK  243  A    between atoms: _589  and  _591
REMARK  244  A    between atoms: _591  and  _592
REMARK  245  A    between atoms: _594  and  _596
REMARK  246  A    between atoms: _596  and  _597
REMARK  247  A    between atoms: _596  and  _599
REMARK  248  A    between atoms: _599  and  _600
REMARK  249  A    between atoms: _600  and  _601
REMARK  250  A    between atoms: _606  and  _608
REMARK  251  A    between atoms: _608  and  _609
REMARK  252  A    between atoms: _608  and  _611
REMARK  253  A    between atoms: _611  and  _612
REMARK  254  A    between atoms: _614  and  _616
REMARK  255  A    between atoms: _616  and  _617
REMARK  256  A    between atoms: _619  and  _621
REMARK  257  A    between atoms: _621  and  _622
REMARK  258  A    between atoms: _621  and  _624
REMARK  259  A    between atoms: _624  and  _625
REMARK  260  A    between atoms: _628  and  _630
REMARK  261  A    between atoms: _630  and  _631
REMARK  262  A    between atoms: _633  and  _635
REMARK  263  A    between atoms: _635  and  _636
REMARK  264  A    between atoms: _635  and  _638
REMARK  265  A    between atoms: _638  and  _639
REMARK  266  A    between atoms: _642  and  _644
REMARK  267  A    between atoms: _644  and  _645
REMARK  268  A    between atoms: _644  and  _647
REMARK  269  A    between atoms: _647  and  _648
REMARK  270  A    between atoms: _653  and  _655
REMARK  271  A    between atoms: _655  and  _656
REMARK  272  A    between atoms: _655  and  _658
REMARK  273  A    between atoms: _658  and  _659
REMARK  274  A    between atoms: _662  and  _664
REMARK  275  A    between atoms: _664  and  _665
REMARK  276  A    between atoms: _664  and  _667
REMARK  277  A    between atoms: _667  and  _668
REMARK  278  A    between atoms: _674  and  _676
REMARK  279  A    between atoms: _676  and  _677
REMARK  280  A    between atoms: _679  and  _681
REMARK  281  A    between atoms: _681  and  _682
REMARK  282  A    between atoms: _681  and  _684
REMARK  283  A    between atoms: _684  and  _685
REMARK                            x       y       z     vdW  Elec       q    Type
REMARK                         _______ _______ _______ _____ _____    ______ ____
ROOT
ATOM      1  CA  ASN A   5      -4.848  28.908   7.016  0.00  0.00    +0.158 C 
ENDROOT
BRANCH   1   4
ATOM      2  C   ILE A   4      -5.382  30.996   8.143  0.00  0.00    +0.241 C 
ATOM      3  O   ILE A   4      -4.970  30.596   9.231  0.00  0.00    -0.273 OA
ATOM      4  N   ASN A   5      -5.419  30.262   7.047  0.00  0.00    -0.297 N 
ATOM      5  H   ASN A   5      -5.861  30.649   6.189  0.00  0.00    +0.150 HD
BRANCH   2   6
ATOM      6  CA  ILE A   4      -5.883  32.430   8.039  0.00  0.00    +0.149 C 
BRANCH   6   8
ATOM      7  C   GLY A   3      -7.694  33.675   9.161  0.00  0.00    +0.243 C 
ATOM      8  N   ILE A   4      -6.732  32.775   9.185  0.00  0.00    -0.297 N 
ATOM      9  H   ILE A   4      -6.562  32.273  10.080  0.00  0.00    +0.150 HD
ATOM     10  O   GLY A   3      -8.046  34.256   8.138  0.00  0.00    -0.273 OA
BRANCH   7  11
ATOM     11  CA  GLY A   3      -8.340  33.947  10.511  0.00  0.00    +0.176 C 
BRANCH  11  14
ATOM     12  C   ILE A   2      -7.038  33.316  12.459  0.00  0.00    +0.241 C 
ATOM     13  O   ILE A   2      -6.496  34.423  12.422  0.00  0.00    -0.273 OA
ATOM     14  N   GLY A   3      -7.887  32.963  11.510  0.00  0.00    -0.295 N 
ATOM     15  H   GLY A   3      -8.238  31.985  11.468  0.00  0.00    +0.150 HD
BRANCH  12  16
ATOM     16  CA  ILE A   2      -6.725  32.376  13.605  0.00  0.00    +0.148 C 
BRANCH  16  19
ATOM     17  C   GLY A   1      -8.722  32.095  14.966  0.00  0.00    +0.240 C 
ATOM     18  O   GLY A   1      -8.530  33.185  15.504  0.00  0.00    -0.274 OA
ATOM     19  N   ILE A   2      -7.911  31.624  14.035  0.00  0.00    -0.297 N 
ATOM     20  H   ILE A   2      -8.117  30.703  13.598  0.00  0.00    +0.150 HD
BRANCH  17  21
ATOM     21  CA  GLY A   1      -9.913  31.245  15.367  0.00  0.00    +0.169 C 
BRANCH  21  22
ATOM     22  N   GLY A   1     -10.234  30.230  14.356  0.00  0.00    -0.236 NA
ATOM     23  H   GLY A   1      -9.922  29.251  14.517  0.00  0.00    +0.142 HD
ENDBRANCH  21  22
ENDBRANCH  17  21
ENDBRANCH  16  19
BRANCH  16  24
ATOM     24  CB  ILE A   2      -5.592  31.439  13.233  0.00  0.00    +0.027 C 
ATOM     25  CG2 ILE A   2      -4.768  31.990  12.081  0.00  0.00    +0.002 C 
BRANCH  24  26
ATOM     26  CG1 ILE A   2      -4.717  31.118  14.434  0.00  0.00    +0.002 C 
ATOM     27  CD1 ILE A   2      -4.091  29.733  14.393  0.00  0.00    +0.000 C 
ENDBRANCH  24  26
ENDBRANCH  16  24
ENDBRANCH  12  16
ENDBRANCH  11  14
ENDBRANCH   7  11
ENDBRANCH   6   8
BRANCH   6  28
ATOM     28  CB  ILE A   4      -4.705  33.382   7.926  0.00  0.00    +0.027 C 
ATOM     29  CG2 ILE A   4      -5.145  34.757   7.454  0.00  0.00    +0.002 C 
BRANCH  28  30
ATOM     30  CG1 ILE A   4      -3.929  33.466   9.229  0.00  0.00    +0.002 C 
ATOM     31  CD1 ILE A   4      -2.853  34.541   9.240  0.00  0.00    +0.000 C 
ENDBRANCH  28  30
ENDBRANCH   6  28
ENDBRANCH   2   6
ENDBRANCH   1   4
BRANCH   1  32
ATOM     32  C   ASN A   5      -3.331  28.963   7.074  0.00  0.00    +0.241 C 
ATOM     33  N   ILE A   6      -2.752  28.100   7.892  0.00  0.00    -0.297 N 
ATOM     34  H   ILE A   6      -3.323  27.421   8.434  0.00  0.00    +0.150 HD
ATOM     35  O   ASN A   5      -2.697  29.776   6.407  0.00  0.00    -0.273 OA
BRANCH  33  36
ATOM     36  CA  ILE A   6      -1.287  28.116   8.023  0.00  0.00    +0.149 C 
BRANCH  36  37
ATOM     37  C   ILE A   6      -0.694  26.748   7.742  0.00  0.00    +0.241 C 
ATOM     38  O   ILE A   6      -0.940  25.806   8.491  0.00  0.00    -0.273 OA
ATOM     39  N   PHE A   7       0.070  26.648   6.669  0.00  0.00    -0.297 N 
ATOM     40  H   PHE A   7       0.066  27.400   5.951  0.00  0.00    +0.150 HD
BRANCH  39  41
ATOM     41  CA  PHE A   7       0.927  25.462   6.499  0.00  0.00    +0.153 C 
BRANCH  41  42
ATOM     42  C   PHE A   7       2.182  25.592   7.344  0.00  0.00    +0.241 C 
ATOM     43  N   GLY A   8       2.111  25.057   8.550  0.00  0.00    -0.295 N 
ATOM     44  H   GLY A   8       1.263  24.500   8.778  0.00  0.00    +0.150 HD
ATOM     45  O   PHE A   7       3.184  26.180   6.943  0.00  0.00    -0.273 OA
BRANCH  43  46
ATOM     46  CA  GLY A   8       3.136  25.188   9.594  0.00  0.00    +0.176 C 
BRANCH  46  47
ATOM     47  C   GLY A   8       4.039  23.962   9.557  0.00  0.00    +0.243 C 
ATOM     48  N   ASP A   9       4.840  23.757  10.583  0.00  0.00    -0.297 N 
ATOM     49  H   ASP A   9       4.650  24.266  11.470  0.00  0.00    +0.150 HD
ATOM     50  O   GLY A   8       3.968  23.229   8.570  0.00  0.00    -0.273 OA
BRANCH  48  51
ATOM     51  CA  ASP A   9       5.989  22.843  10.532  0.00  0.00    +0.148 C 
BRANCH  51  52
ATOM     52  C   ASP A   9       5.537  21.419  10.255  0.00  0.00    +0.227 C 
ATOM     53  O   ASP A   9       6.233  20.637   9.608  0.00  0.00    -0.286 OA
ENDBRANCH  51  52
BRANCH  51  54
ATOM     54  CB  ASP A   9       6.773  22.873  11.844  0.00  0.00    +0.142 C 
BRANCH  54  55
ATOM     55  CG  ASP A   9       7.594  24.142  12.048  0.00  0.00    +0.367 C 
ATOM     56  OD2 ASP A   9       7.920  24.418  13.214  0.00  0.00    -0.246 OA
ATOM     57  OD1 ASP A   9       7.916  24.847  11.082  0.00  0.00    -0.246 OA
ENDBRANCH  54  55
ENDBRANCH  51  54
ENDBRANCH  48  51
ENDBRANCH  46  47
ENDBRANCH  43  46
ENDBRANCH  41  42
BRANCH  41  58
ATOM     58  CB  PHE A   7       1.294  25.285   5.028  0.00  0.00    +0.055 C 
BRANCH  58  59
ATOM     59  CG  PHE A   7       0.057  24.972   4.178  0.00  0.00    -0.020 A 
ATOM     60  CD2 PHE A   7      -0.295  23.653   3.902  0.00  0.00    -0.004 A 
ATOM     61  CE2 PHE A   7      -1.417  23.366   3.133  0.00  0.00    -0.000 A 
ATOM     62  CZ  PHE A   7      -2.203  24.397   2.629  0.00  0.00    -0.000 A 
ATOM     63  CE1 PHE A   7      -1.860  25.717   2.900  0.00  0.00    -0.000 A 
ATOM     64  CD1 PHE A   7      -0.735  25.997   3.670  0.00  0.00    -0.004 A 
ENDBRANCH  58  59
ENDBRANCH  41  58
ENDBRANCH  39  41
ENDBRANCH  36  37
BRANCH  36  65
ATOM     65  CB  ILE A   6      -0.873  28.601   9.399  0.00  0.00    +0.027 C 
ATOM     66  CG2 ILE A   6       0.639  28.642   9.547  0.00  0.00    +0.002 C 
BRANCH  65  67
ATOM     67  CG1 ILE A   6      -1.489  29.960   9.709  0.00  0.00    +0.002 C 
ATOM     68  CD1 ILE A   6      -1.859  30.074  11.179  0.00  0.00    +0.000 C 
ENDBRANCH  65  67
ENDBRANCH  36  65
ENDBRANCH  33  36
ENDBRANCH   1  32
BRANCH   1  69
ATOM     69  CB  ASN A   5      -5.284  28.179   5.744  0.00  0.00    +0.114 C 
BRANCH  69  70
ATOM     70  CG  ASN A   5      -6.808  28.045   5.720  0.00  0.00    +0.222 C 
ATOM     71  ND2 ASN A   5      -7.427  27.430   6.709  0.00  0.00    -0.329 N 
ATOM     72 HD21 ASN A   5      -6.879  27.036   7.500  0.00  0.00    +0.145 HD
ATOM     73 HD22 ASN A   5      -8.463  27.339   6.698  0.00  0.00    +0.145 HD
ATOM     74  OD1 ASN A   5      -7.490  28.550   4.710  0.00  0.00    -0.275 OA
ENDBRANCH  69  70
ENDBRANCH   1  69
TORSDOF 30
REMARK  Name = ../refined-set-2016/5er2/5er2_pocket.pdb
REMARK  283 active torsions:
REMARK  status: ('A' for Active; 'I' for Inactive)
REMARK    1  A    between atoms: _1  and  _3
REMARK    2  A    between atoms: _3  and  _4
REMARK    3  A    between atoms: _3  and  _6
REMARK    4  A    between atoms: _6  and  _7
REMARK    5  A    between atoms: _10  and  _12
REMARK    6  A    between atoms: _12  and  _13
REMARK    7  A    between atoms: _12  and  _15
REMARK    8  A    between atoms: _15  and  _16
REMARK    9  A    between atoms: _19  and  _21
REMARK   10  A    between atoms: _21  and  _22
REMARK   11  A    between atoms: _21  and  _24
REMARK   12  A    between atoms: _24  and  _25
REMARK   13  A    between atoms: _28  and  _30
REMARK   14  A    between atoms: _30  and  _31
REMARK   15  A    between atoms: _30  and  _33
REMARK   16  A    between atoms: _33  and  _34
REMARK   17  A    between atoms: _37  and  _39
REMARK   18  A    between atoms: _39  and  _40
REMARK   19  A    between atoms: _39  and  _42
REMARK   20  A    between atoms: _42  and  _43
REMARK   21  A    between atoms: _46  and  _48
REMARK   22  A    between atoms: _48  and  _49
REMARK   23  A    between atoms: _52  and  _54
REMARK   24  A    between atoms: _54  and  _55
REMARK   25  A    between atoms: _54  and  _57
REMARK   26  A    between atoms: _57  and  _58
REMARK   27  A    between atoms: _63  and  _64
REMARK   28  A    between atoms: _66  and  _68
REMARK   29  A    between atoms: _68  and  _69
REMARK   30  A    between atoms: _68  and  _71
REMARK   31  A    between atoms: _71  and  _72
REMARK   32  A    between atoms: _75  and  _77
REMARK   33  A    between atoms: _77  and  _78
REMARK   34  A    between atoms: _77  and  _80
REMARK   35  A    between atoms: _80  and  _81
REMARK   36  A    between atoms: _87  and  _89
REMARK   37  A    between atoms: _89  and  _90
REMARK   38  A    between atoms: _89  and  _92
REMARK   39  A    between atoms: _92  and  _93
REMARK   40  A    between atoms: _96  and  _98
REMARK   41  A    between atoms: _98  and  _99
REMARK   42  A    between atoms: _98  and  _101
REMARK   43  A    between atoms: _101  and  _102
REMARK   44  A    between atoms: _105  and  _107
REMARK   45  A    between atoms: _107  and  _108
REMARK   46  A    between atoms: _110  and  _112
REMARK   47  A    between atoms: _112  and  _113
REMARK   48  A    between atoms: _112  and  _115
REMARK   49  A    between atoms: _115  and  _116
REMARK   50  A    between atoms: _118  and  _120
REMARK   51  A    between atoms: _120  and  _121
REMARK   52  A    between atoms: _120  and  _123
REMARK   53  A    between atoms: _123  and  _124
REMARK   54  A    between atoms: _126  and  _128
REMARK   55  A    between atoms: _128  and  _129
REMARK   56  A    between atoms: _128  and  _131
REMARK   57  A    between atoms: _131  and  _132
REMARK   58  A    between atoms: _135  and  _137
REMARK   59  A    between atoms: _137  and  _138
REMARK   60  A    between atoms: _137  and  _140
REMARK   61  A    between atoms: _140  and  _141
REMARK   62  A    between atoms: _151  and  _153
REMARK   63  A    between atoms: _153  and  _154
REMARK   64  A    between atoms: _153  and  _156
REMARK   65  A    between atoms: _156  and  _157
REMARK   66  A    between atoms: _159  and  _161
REMARK   67  A    between atoms: _161  and  _162
REMARK   68  A    between atoms: _161  and  _164
REMARK   69  A    between atoms: _164  and  _165
REMARK   70  A    between atoms: _168  and  _170
REMARK   71  A    between atoms: _170  and  _171
REMARK   72  A    between atoms: _170  and  _173
REMARK   73  A    between atoms: _173  and  _174
REMARK   74  A    between atoms: _176  and  _178
REMARK   75  A    between atoms: _178  and  _179
REMARK   76  A    between atoms: _178  and  _181
REMARK   77  A    between atoms: _181  and  _182
REMARK   78  A    between atoms: _187  and  _188
REMARK   79  A    between atoms: _190  and  _192
REMARK   80  A    between atoms: _192  and  _193
REMARK   81  A    between atoms: _195  and  _197
REMARK   82  A    between atoms: _197  and  _198
REMARK   83  A    between atoms: _197  and  _200
REMARK   84  A    between atoms: _200  and  _201
REMARK   85  A    between atoms: _204  and  _206
REMARK   86  A    between atoms: _206  and  _207
REMARK   87  A    between atoms: _209  and  _211
REMARK   88  A    between atoms: _211  and  _212
REMARK   89  A    between atoms: _211  and  _214
REMARK   90  A    between atoms: _214  and  _215
REMARK   91  A    between atoms: _217  and  _219
REMARK   92  A    between atoms: _219  and  _220
REMARK   93  A    between atoms: _219  and  _222
REMARK   94  A    between atoms: _222  and  _223
REMARK   95  A    between atoms: _225  and  _227
REMARK   96  A    between atoms: _227  and  _228
REMARK   97  A    between atoms: _227  and  _230
REMARK   98  A    between atoms: _230  and  _231
REMARK   99  A    between atoms: _233  and  _235
REMARK  100  A    between atoms: _235  and  _236
REMARK  101  A    between atoms: _235  and  _238
REMARK  102  A    between atoms: _238  and  _239
REMARK  103  A    between atoms: _241  and  _243
REMARK  104  A    between atoms: _243  and  _244
REMARK  105  A    between atoms: _243  and  _246
REMARK  106  A    between atoms: _246  and  _247
REMARK  107  A    between atoms: _253  and  _255
REMARK  108  A    between atoms: _255  and  _256
REMARK  109  A    between atoms: _255  and  _258
REMARK  110  A    between atoms: _258  and  _259
REMARK  111  A    between atoms: _259  and  _260
REMARK  112  A    between atoms: _263  and  _265
REMARK  113  A    between atoms: _265  and  _266
REMARK  114  A    between atoms: _265  and  _268
REMARK  115  A    between atoms: _268  and  _269
REMARK  116  A    between atoms: _272  and  _274
REMARK  117  A    between atoms: _274  and  _275
REMARK  118  A    between atoms: _274  and  _277
REMARK  119  A    between atoms: _277  and  _278
REMARK  120  A    between atoms: _280  and  _282
REMARK  121  A    between atoms: _282  and  _283
REMARK  122  A    between atoms: _282  and  _285
REMARK  123  A    between atoms: _285  and  _286
REMARK  124  A    between atoms: _289  and  _291
REMARK  125  A    between atoms: _291  and  _292
REMARK  126  A    between atoms: _291  and  _294
REMARK  127  A    between atoms: _294  and  _295
REMARK  128  A    between atoms: _298  and  _300
REMARK  129  A    between atoms: _300  and  _301
REMARK  130  A    between atoms: _303  and  _305
REMARK  131  A    between atoms: _305  and  _306
REMARK  132  A    between atoms: _305  and  _308
REMARK  133  A    between atoms: _308  and  _309
REMARK  134  A    between atoms: _312  and  _314
REMARK  135  A    between atoms: _314  and  _315
REMARK  136  A    between atoms: _314  and  _317
REMARK  137  A    between atoms: _317  and  _318
REMARK  138  A    between atoms: _321  and  _323
REMARK  139  A    between atoms: _323  and  _324
REMARK  140  A    between atoms: _323  and  _326
REMARK  141  A    between atoms: _326  and  _327
REMARK  142  A    between atoms: _330  and  _332
REMARK  143  A    between atoms: _332  and  _333
REMARK  144  A    between atoms: _336  and  _338
REMARK  145  A    between atoms: _338  and  _339
REMARK  146  A    between atoms: _338  and  _341
REMARK  147  A    between atoms: _341  and  _342
REMARK  148  A    between atoms: _348  and  _350
REMARK  149  A    between atoms: _350  and  _351
REMARK  150  A    between atoms: _350  and  _353
REMARK  151  A    between atoms: _353  and  _354
REMARK  152  A    between atoms: _356  and  _358
REMARK  153  A    between atoms: _358  and  _359
REMARK  154  A    between atoms: _358  and  _361
REMARK  155  A    between atoms: _361  and  _362
REMARK  156  A    between atoms: _365  and  _367
REMARK  157  A    between atoms: _367  and  _368
REMARK  158  A    between atoms: _367  and  _370
REMARK  159  A    between atoms: _370  and  _371
REMARK  160  A    between atoms: _374  and  _376
REMARK  161  A    between atoms: _376  and  _377
REMARK  162  A    between atoms: _376  and  _379
REMARK  163  A    between atoms: _379  and  _380
REMARK  164  A    between atoms: _385  and  _387
REMARK  165  A    between atoms: _387  and  _388
REMARK  166  A    between atoms: _387  and  _390
REMARK  167  A    between atoms: _390  and  _391
REMARK  168  A    between atoms: _394  and  _396
REMARK  169  A    between atoms: _396  and  _397
REMARK  170  A    between atoms: _396  and  _399
REMARK  171  A    between atoms: _402  and  _404
REMARK  172  A    between atoms: _404  and  _405
REMARK  173  A    between atoms: _404  and  _407
REMARK  174  A    between atoms: _407  and  _408
REMARK  175  A    between atoms: _408  and  _409
REMARK  176  A    between atoms: _414  and  _416
REMARK  177  A    between atoms: _416  and  _417
REMARK  178  A    between atoms: _416  and  _419
REMARK  179  A    between atoms: _419  and  _420
REMARK  180  A    between atoms: _420  and  _421
REMARK  181  A    between atoms: _426  and  _428
REMARK  182  A    between atoms: _428  and  _429
REMARK  183  A    between atoms: _428  and  _431
REMARK  184  A    between atoms: _431  and  _432
REMARK  185  A    between atoms: _438  and  _440
REMARK  186  A    between atoms: _440  and  _441
REMARK  187  A    between atoms: _440  and  _443
REMARK  188  A    between atoms: _443  and  _444
REMARK  189  A    between atoms: _454  and  _456
REMARK  190  A    between atoms: _456  and  _457
REMARK  191  A    between atoms: _459  and  _461
REMARK  192  A    between atoms: _461  and  _462
REMARK  193  A    between atoms: _461  and  _464
REMARK  194  A    between atoms: _464  and  _465
REMARK  195  A    between atoms: _468  and  _470
REMARK  196  A    between atoms: _470  and  _471
REMARK  197  A    between atoms: _474  and  _476
REMARK  198  A    between atoms: _476  and  _477
REMARK  199  A    between atoms: _476  and  _479
REMARK  200  A    between atoms: _479  and  _480
REMARK  201  A    between atoms: _483  and  _485
REMARK  202  A    between atoms: _485  and  _486
REMARK  203  A    between atoms: _485  and  _488
REMARK  204  A    between atoms: _488  and  _489
REMARK  205  A    between atoms: _492  and  _494
REMARK  206  A    between atoms: _494  and  _495
REMARK  207  A    between atoms: _497  and  _499
REMARK  208  A    between atoms: _499  and  _500
REMARK  209  A    between atoms: _499  and  _502
REMARK  210  A    between atoms: _502  and  _503
REMARK  211  A    between atoms: _506  and  _508
REMARK  212  A    between atoms: _508  and  _509
REMARK  213  A    between atoms: _508  and  _511
REMARK  214  A    between atoms: _511  and  _512
REMARK  215  A    between atoms: _515  and  _517
REMARK  216  A    between atoms: _517  and  _518
REMARK  217  A    between atoms: _517  and  _520
REMARK  218  A    between atoms: _520  and  _521
REMARK  219  A    between atoms: _524  and  _526
REMARK  220  A    between atoms: _526  and  _527
REMARK  221  A    between atoms: _526  and  _529
REMARK  222  A    between atoms: _529  and  _530
REMARK  223  A    between atoms: _533  and  _535
REMARK  224  A    between atoms: _535  and  _536
REMARK  225  A    between atoms: _535  and  _538
REMARK  226  A    between atoms: _538  and  _539
REMARK  227  A    between atoms: _544  and  _545
REMARK  228  A    between atoms: _547  and  _549
REMARK  229  A    between atoms: _549  and  _550
REMARK  230  A    between atoms: _549  and  _552
REMARK  231  A    between atoms: _555  and  _557
REMARK  232  A    between atoms: _557  and  _558
REMARK  233  A    between atoms: _560  and  _562
REMARK  234  A    between atoms: _562  and  _563
REMARK  235  A    between atoms: _562  and  _565
REMARK  236  A    between atoms: _565  and  _566
REMARK  237  A    between atoms: _572  and  _574
REMARK  238  A    between atoms: _574  and  _575
REMARK  239  A    between atoms: _574  and  _577
REMARK  240  A    between atoms: _577  and  _578
REMARK  241  A    between atoms: _584  and  _586
REMARK  242  A    between atoms: _586  and  _587
REMARK  243  A    between atoms: _589  and  _591
REMARK  244  A    between atoms: _591  and  _592
REMARK  245  A    between atoms: _594  and  _596
REMARK  246  A    between atoms: _596  and  _597
REMARK  247  A    between atoms: _596  and  _599
REMARK  248  A    between atoms: _599  and  _600
REMARK  249  A    between atoms: _600  and  _601
REMARK  250  A    between atoms: _606  and  _608
REMARK  251  A    between atoms: _608  and  _609
REMARK  252  A    between atoms: _608  and  _611
REMARK  253  A    between atoms: _611  and  _612
REMARK  254  A    between atoms: _614  and  _616
REMARK  255  A    between atoms: _616  and  _617
REMARK  256  A    between atoms: _619  and  _621
REMARK  257  A    between atoms: _621  and  _622
REMARK  258  A    between atoms: _621  and  _624
REMARK  259  A    between atoms: _624  and  _625
REMARK  260  A    between atoms: _628  and  _630
REMARK  261  A    between atoms: _630  and  _631
REMARK  262  A    between atoms: _633  and  _635
REMARK  263  A    between atoms: _635  and  _636
REMARK  264  A    between atoms: _635  and  _638
REMARK  265  A    between atoms: _638  and  _639
REMARK  266  A    between atoms: _642  and  _644
REMARK  267  A    between atoms: _644  and  _645
REMARK  268  A    between atoms: _644  and  _647
REMARK  269  A    between atoms: _647  and  _648
REMARK  270  A    between atoms: _653  and  _655
REMARK  271  A    between atoms: _655  and  _656
REMARK  272  A    between atoms: _655  and  _658
REMARK  273  A    between atoms: _658  and  _659
REMARK  274  A    between atoms: _662  and  _664
REMARK  275  A    between atoms: _664  and  _665
REMARK  276  A    between atoms: _664  and  _667
REMARK  277  A    between atoms: _667  and  _668
REMARK  278  A    between atoms: _674  and  _676
REMARK  279  A    between atoms: _676  and  _677
REMARK  280  A    between atoms: _679  and  _681
REMARK  281  A    between atoms: _681  and  _682
REMARK  282  A    between atoms: _681  and  _684
REMARK  283  A    between atoms: _684  and  _685
REMARK                            x       y       z     vdW  Elec       q    Type
REMARK                         _______ _______ _______ _____ _____    ______ ____
ROOT
ATOM      1  O   HOH     1      10.844  27.043  13.693  0.00  0.00    +0.000 OA
ENDROOT
TORSDOF 0
REMARK  Name = ../refined-set-2016/5er2/5er2_pocket.pdb
REMARK  283 active torsions:
REMARK  status: ('A' for Active; 'I' for Inactive)
REMARK    1  A    between atoms: _1  and  _3
REMARK    2  A    between atoms: _3  and  _4
REMARK    3  A    between atoms: _3  and  _6
REMARK    4  A    between atoms: _6  and  _7
REMARK    5  A    between atoms: _10  and  _12
REMARK    6  A    between atoms: _12  and  _13
REMARK    7  A    between atoms: _12  and  _15
REMARK    8  A    between atoms: _15  and  _16
REMARK    9  A    between atoms: _19  and  _21
REMARK   10  A    between atoms: _21  and  _22
REMARK   11  A    between atoms: _21  and  _24
REMARK   12  A    between atoms: _24  and  _25
REMARK   13  A    between atoms: _28  and  _30
REMARK   14  A    between atoms: _30  and  _31
REMARK   15  A    between atoms: _30  and  _33
REMARK   16  A    between atoms: _33  and  _34
REMARK   17  A    between atoms: _37  and  _39
REMARK   18  A    between atoms: _39  and  _40
REMARK   19  A    between atoms: _39  and  _42
REMARK   20  A    between atoms: _42  and  _43
REMARK   21  A    between atoms: _46  and  _48
REMARK   22  A    between atoms: _48  and  _49
REMARK   23  A    between atoms: _52  and  _54
REMARK   24  A    between atoms: _54  and  _55
REMARK   25  A    between atoms: _54  and  _57
REMARK   26  A    between atoms: _57  and  _58
REMARK   27  A    between atoms: _63  and  _64
REMARK   28  A    between atoms: _66  and  _68
REMARK   29  A    between atoms: _68  and  _69
REMARK   30  A    between atoms: _68  and  _71
REMARK   31  A    between atoms: _71  and  _72
REMARK   32  A    between atoms: _75  and  _77
REMARK   33  A    between atoms: _77  and  _78
REMARK   34  A    between atoms: _77  and  _80
REMARK   35  A    between atoms: _80  and  _81
REMARK   36  A    between atoms: _87  and  _89
REMARK   37  A    between atoms: _89  and  _90
REMARK   38  A    between atoms: _89  and  _92
REMARK   39  A    between atoms: _92  and  _93
REMARK   40  A    between atoms: _96  and  _98
REMARK   41  A    between atoms: _98  and  _99
REMARK   42  A    between atoms: _98  and  _101
REMARK   43  A    between atoms: _101  and  _102
REMARK   44  A    between atoms: _105  and  _107
REMARK   45  A    between atoms: _107  and  _108
REMARK   46  A    between atoms: _110  and  _112
REMARK   47  A    between atoms: _112  and  _113
REMARK   48  A    between atoms: _112  and  _115
REMARK   49  A    between atoms: _115  and  _116
REMARK   50  A    between atoms: _118  and  _120
REMARK   51  A    between atoms: _120  and  _121
REMARK   52  A    between atoms: _120  and  _123
REMARK   53  A    between atoms: _123  and  _124
REMARK   54  A    between atoms: _126  and  _128
REMARK   55  A    between atoms: _128  and  _129
REMARK   56  A    between atoms: _128  and  _131
REMARK   57  A    between atoms: _131  and  _132
REMARK   58  A    between atoms: _135  and  _137
REMARK   59  A    between atoms: _137  and  _138
REMARK   60  A    between atoms: _137  and  _140
REMARK   61  A    between atoms: _140  and  _141
REMARK   62  A    between atoms: _151  and  _153
REMARK   63  A    between atoms: _153  and  _154
REMARK   64  A    between atoms: _153  and  _156
REMARK   65  A    between atoms: _156  and  _157
REMARK   66  A    between atoms: _159  and  _161
REMARK   67  A    between atoms: _161  and  _162
REMARK   68  A    between atoms: _161  and  _164
REMARK   69  A    between atoms: _164  and  _165
REMARK   70  A    between atoms: _168  and  _170
REMARK   71  A    between atoms: _170  and  _171
REMARK   72  A    between atoms: _170  and  _173
REMARK   73  A    between atoms: _173  and  _174
REMARK   74  A    between atoms: _176  and  _178
REMARK   75  A    between atoms: _178  and  _179
REMARK   76  A    between atoms: _178  and  _181
REMARK   77  A    between atoms: _181  and  _182
REMARK   78  A    between atoms: _187  and  _188
REMARK   79  A    between atoms: _190  and  _192
REMARK   80  A    between atoms: _192  and  _193
REMARK   81  A    between atoms: _195  and  _197
REMARK   82  A    between atoms: _197  and  _198
REMARK   83  A    between atoms: _197  and  _200
REMARK   84  A    between atoms: _200  and  _201
REMARK   85  A    between atoms: _204  and  _206
REMARK   86  A    between atoms: _206  and  _207
REMARK   87  A    between atoms: _209  and  _211
REMARK   88  A    between atoms: _211  and  _212
REMARK   89  A    between atoms: _211  and  _214
REMARK   90  A    between atoms: _214  and  _215
REMARK   91  A    between atoms: _217  and  _219
REMARK   92  A    between atoms: _219  and  _220
REMARK   93  A    between atoms: _219  and  _222
REMARK   94  A    between atoms: _222  and  _223
REMARK   95  A    between atoms: _225  and  _227
REMARK   96  A    between atoms: _227  and  _228
REMARK   97  A    between atoms: _227  and  _230
REMARK   98  A    between atoms: _230  and  _231
REMARK   99  A    between atoms: _233  and  _235
REMARK  100  A    between atoms: _235  and  _236
REMARK  101  A    between atoms: _235  and  _238
REMARK  102  A    between atoms: _238  and  _239
REMARK  103  A    between atoms: _241  and  _243
REMARK  104  A    between atoms: _243  and  _244
REMARK  105  A    between atoms: _243  and  _246
REMARK  106  A    between atoms: _246  and  _247
REMARK  107  A    between atoms: _253  and  _255
REMARK  108  A    between atoms: _255  and  _256
REMARK  109  A    between atoms: _255  and  _258
REMARK  110  A    between atoms: _258  and  _259
REMARK  111  A    between atoms: _259  and  _260
REMARK  112  A    between atoms: _263  and  _265
REMARK  113  A    between atoms: _265  and  _266
REMARK  114  A    between atoms: _265  and  _268
REMARK  115  A    between atoms: _268  and  _269
REMARK  116  A    between atoms: _272  and  _274
REMARK  117  A    between atoms: _274  and  _275
REMARK  118  A    between atoms: _274  and  _277
REMARK  119  A    between atoms: _277  and  _278
REMARK  120  A    between atoms: _280  and  _282
REMARK  121  A    between atoms: _282  and  _283
REMARK  122  A    between atoms: _282  and  _285
REMARK  123  A    between atoms: _285  and  _286
REMARK  124  A    between atoms: _289  and  _291
REMARK  125  A    between atoms: _291  and  _292
REMARK  126  A    between atoms: _291  and  _294
REMARK  127  A    between atoms: _294  and  _295
REMARK  128  A    between atoms: _298  and  _300
REMARK  129  A    between atoms: _300  and  _301
REMARK  130  A    between atoms: _303  and  _305
REMARK  131  A    between atoms: _305  and  _306
REMARK  132  A    between atoms: _305  and  _308
REMARK  133  A    between atoms: _308  and  _309
REMARK  134  A    between atoms: _312  and  _314
REMARK  135  A    between atoms: _314  and  _315
REMARK  136  A    between atoms: _314  and  _317
REMARK  137  A    between atoms: _317  and  _318
REMARK  138  A    between atoms: _321  and  _323
REMARK  139  A    between atoms: _323  and  _324
REMARK  140  A    between atoms: _323  and  _326
REMARK  141  A    between atoms: _326  and  _327
REMARK  142  A    between atoms: _330  and  _332
REMARK  143  A    between atoms: _332  and  _333
REMARK  144  A    between atoms: _336  and  _338
REMARK  145  A    between atoms: _338  and  _339
REMARK  146  A    between atoms: _338  and  _341
REMARK  147  A    between atoms: _341  and  _342
REMARK  148  A    between atoms: _348  and  _350
REMARK  149  A    between atoms: _350  and  _351
REMARK  150  A    between atoms: _350  and  _353
REMARK  151  A    between atoms: _353  and  _354
REMARK  152  A    between atoms: _356  and  _358
REMARK  153  A    between atoms: _358  and  _359
REMARK  154  A    between atoms: _358  and  _361
REMARK  155  A    between atoms: _361  and  _362
REMARK  156  A    between atoms: _365  and  _367
REMARK  157  A    between atoms: _367  and  _368
REMARK  158  A    between atoms: _367  and  _370
REMARK  159  A    between atoms: _370  and  _371
REMARK  160  A    between atoms: _374  and  _376
REMARK  161  A    between atoms: _376  and  _377
REMARK  162  A    between atoms: _376  and  _379
REMARK  163  A    between atoms: _379  and  _380
REMARK  164  A    between atoms: _385  and  _387
REMARK  165  A    between atoms: _387  and  _388
REMARK  166  A    between atoms: _387  and  _390
REMARK  167  A    between atoms: _390  and  _391
REMARK  168  A    between atoms: _394  and  _396
REMARK  169  A    between atoms: _396  and  _397
REMARK  170  A    between atoms: _396  and  _399
REMARK  171  A    between atoms: _402  and  _404
REMARK  172  A    between atoms: _404  and  _405
REMARK  173  A    between atoms: _404  and  _407
REMARK  174  A    between atoms: _407  and  _408
REMARK  175  A    between atoms: _408  and  _409
REMARK  176  A    between atoms: _414  and  _416
REMARK  177  A    between atoms: _416  and  _417
REMARK  178  A    between atoms: _416  and  _419
REMARK  179  A    between atoms: _419  and  _420
REMARK  180  A    between atoms: _420  and  _421
REMARK  181  A    between atoms: _426  and  _428
REMARK  182  A    between atoms: _428  and  _429
REMARK  183  A    between atoms: _428  and  _431
REMARK  184  A    between atoms: _431  and  _432
REMARK  185  A    between atoms: _438  and  _440
REMARK  186  A    between atoms: _440  and  _441
REMARK  187  A    between atoms: _440  and  _443
REMARK  188  A    between atoms: _443  and  _444
REMARK  189  A    between atoms: _454  and  _456
REMARK  190  A    between atoms: _456  and  _457
REMARK  191  A    between atoms: _459  and  _461
REMARK  192  A    between atoms: _461  and  _462
REMARK  193  A    between atoms: _461  and  _464
REMARK  194  A    between atoms: _464  and  _465
REMARK  195  A    between atoms: _468  and  _470
REMARK  196  A    between atoms: _470  and  _471
REMARK  197  A    between atoms: _474  and  _476
REMARK  198  A    between atoms: _476  and  _477
REMARK  199  A    between atoms: _476  and  _479
REMARK  200  A    between atoms: _479  and  _480
REMARK  201  A    between atoms: _483  and  _485
REMARK  202  A    between atoms: _485  and  _486
REMARK  203  A    between atoms: _485  and  _488
REMARK  204  A    between atoms: _488  and  _489
REMARK  205  A    between atoms: _492  and  _494
REMARK  206  A    between atoms: _494  and  _495
REMARK  207  A    between atoms: _497  and  _499
REMARK  208  A    between atoms: _499  and  _500
REMARK  209  A    between atoms: _499  and  _502
REMARK  210  A    between atoms: _502  and  _503
REMARK  211  A    between atoms: _506  and  _508
REMARK  212  A    between atoms: _508  and  _509
REMARK  213  A    between atoms: _508  and  _511
REMARK  214  A    between atoms: _511  and  _512
REMARK  215  A    between atoms: _515  and  _517
REMARK  216  A    between atoms: _517  and  _518
REMARK  217  A    between atoms: _517  and  _520
REMARK  218  A    between atoms: _520  and  _521
REMARK  219  A    between atoms: _524  and  _526
REMARK  220  A    between atoms: _526  and  _527
REMARK  221  A    between atoms: _526  and  _529
REMARK  222  A    between atoms: _529  and  _530
REMARK  223  A    between atoms: _533  and  _535
REMARK  224  A    between atoms: _535  and  _536
REMARK  225  A    between atoms: _535  and  _538
REMARK  226  A    between atoms: _538  and  _539
REMARK  227  A    between atoms: _544  and  _545
REMARK  228  A    between atoms: _547  and  _549
REMARK  229  A    between atoms: _549  and  _550
REMARK  230  A    between atoms: _549  and  _552
REMARK  231  A    between atoms: _555  and  _557
REMARK  232  A    between atoms: _557  and  _558
REMARK  233  A    between atoms: _560  and  _562
REMARK  234  A    between atoms: _562  and  _563
REMARK  235  A    between atoms: _562  and  _565
REMARK  236  A    between atoms: _565  and  _566
REMARK  237  A    between atoms: _572  and  _574
REMARK  238  A    between atoms: _574  and  _575
REMARK  239  A    between atoms: _574  and  _577
REMARK  240  A    between atoms: _577  and  _578
REMARK  241  A    between atoms: _584  and  _586
REMARK  242  A    between atoms: _586  and  _587
REMARK  243  A    between atoms: _589  and  _591
REMARK  244  A    between atoms: _591  and  _592
REMARK  245  A    between atoms: _594  and  _596
REMARK  246  A    between atoms: _596  and  _597
REMARK  247  A    between atoms: _596  and  _599
REMARK  248  A    between atoms: _599  and  _600
REMARK  249  A    between atoms: _600  and  _601
REMARK  250  A    between atoms: _606  and  _608
REMARK  251  A    between atoms: _608  and  _609
REMARK  252  A    between atoms: _608  and  _611
REMARK  253  A    between atoms: _611  and  _612
REMARK  254  A    between atoms: _614  and  _616
REMARK  255  A    between atoms: _616  and  _617
REMARK  256  A    between atoms: _619  and  _621
REMARK  257  A    between atoms: _621  and  _622
REMARK  258  A    between atoms: _621  and  _624
REMARK  259  A    between atoms: _624  and  _625
REMARK  260  A    between atoms: _628  and  _630
REMARK  261  A    between atoms: _630  and  _631
REMARK  262  A    between atoms: _633  and  _635
REMARK  263  A    between atoms: _635  and  _636
REMARK  264  A    between atoms: _635  and  _638
REMARK  265  A    between atoms: _638  and  _639
REMARK  266  A    between atoms: _642  and  _644
REMARK  267  A    between atoms: _644  and  _645
REMARK  268  A    between atoms: _644  and  _647
REMARK  269  A    between atoms: _647  and  _648
REMARK  270  A    between atoms: _653  and  _655
REMARK  271  A    between atoms: _655  and  _656
REMARK  272  A    between atoms: _655  and  _658
REMARK  273  A    between atoms: _658  and  _659
REMARK  274  A    between atoms: _662  and  _664
REMARK  275  A    between atoms: _664  and  _665
REMARK  276  A    between atoms: _664  and  _667
REMARK  277  A    between atoms: _667  and  _668
REMARK  278  A    between atoms: _674  and  _676
REMARK  279  A    between atoms: _676  and  _677
REMARK  280  A    between atoms: _679  and  _681
REMARK  281  A    between atoms: _681  and  _682
REMARK  282  A    between atoms: _681  and  _684
REMARK  283  A    between atoms: _684  and  _685
REMARK                            x       y       z     vdW  Elec       q    Type
REMARK                         _______ _______ _______ _____ _____    ______ ____
ROOT
ATOM      1  O   HOH     1       6.380  20.486  14.264  0.00  0.00    +0.000 OA
ENDROOT
TORSDOF 0
REMARK  Name = ../refined-set-2016/5er2/5er2_pocket.pdb
REMARK  283 active torsions:
REMARK  status: ('A' for Active; 'I' for Inactive)
REMARK    1  A    between atoms: _1  and  _3
REMARK    2  A    between atoms: _3  and  _4
REMARK    3  A    between atoms: _3  and  _6
REMARK    4  A    between atoms: _6  and  _7
REMARK    5  A    between atoms: _10  and  _12
REMARK    6  A    between atoms: _12  and  _13
REMARK    7  A    between atoms: _12  and  _15
REMARK    8  A    between atoms: _15  and  _16
REMARK    9  A    between atoms: _19  and  _21
REMARK   10  A    between atoms: _21  and  _22
REMARK   11  A    between atoms: _21  and  _24
REMARK   12  A    between atoms: _24  and  _25
REMARK   13  A    between atoms: _28  and  _30
REMARK   14  A    between atoms: _30  and  _31
REMARK   15  A    between atoms: _30  and  _33
REMARK   16  A    between atoms: _33  and  _34
REMARK   17  A    between atoms: _37  and  _39
REMARK   18  A    between atoms: _39  and  _40
REMARK   19  A    between atoms: _39  and  _42
REMARK   20  A    between atoms: _42  and  _43
REMARK   21  A    between atoms: _46  and  _48
REMARK   22  A    between atoms: _48  and  _49
REMARK   23  A    between atoms: _52  and  _54
REMARK   24  A    between atoms: _54  and  _55
REMARK   25  A    between atoms: _54  and  _57
REMARK   26  A    between atoms: _57  and  _58
REMARK   27  A    between atoms: _63  and  _64
REMARK   28  A    between atoms: _66  and  _68
REMARK   29  A    between atoms: _68  and  _69
REMARK   30  A    between atoms: _68  and  _71
REMARK   31  A    between atoms: _71  and  _72
REMARK   32  A    between atoms: _75  and  _77
REMARK   33  A    between atoms: _77  and  _78
REMARK   34  A    between atoms: _77  and  _80
REMARK   35  A    between atoms: _80  and  _81
REMARK   36  A    between atoms: _87  and  _89
REMARK   37  A    between atoms: _89  and  _90
REMARK   38  A    between atoms: _89  and  _92
REMARK   39  A    between atoms: _92  and  _93
REMARK   40  A    between atoms: _96  and  _98
REMARK   41  A    between atoms: _98  and  _99
REMARK   42  A    between atoms: _98  and  _101
REMARK   43  A    between atoms: _101  and  _102
REMARK   44  A    between atoms: _105  and  _107
REMARK   45  A    between atoms: _107  and  _108
REMARK   46  A    between atoms: _110  and  _112
REMARK   47  A    between atoms: _112  and  _113
REMARK   48  A    between atoms: _112  and  _115
REMARK   49  A    between atoms: _115  and  _116
REMARK   50  A    between atoms: _118  and  _120
REMARK   51  A    between atoms: _120  and  _121
REMARK   52  A    between atoms: _120  and  _123
REMARK   53  A    between atoms: _123  and  _124
REMARK   54  A    between atoms: _126  and  _128
REMARK   55  A    between atoms: _128  and  _129
REMARK   56  A    between atoms: _128  and  _131
REMARK   57  A    between atoms: _131  and  _132
REMARK   58  A    between atoms: _135  and  _137
REMARK   59  A    between atoms: _137  and  _138
REMARK   60  A    between atoms: _137  and  _140
REMARK   61  A    between atoms: _140  and  _141
REMARK   62  A    between atoms: _151  and  _153
REMARK   63  A    between atoms: _153  and  _154
REMARK   64  A    between atoms: _153  and  _156
REMARK   65  A    between atoms: _156  and  _157
REMARK   66  A    between atoms: _159  and  _161
REMARK   67  A    between atoms: _161  and  _162
REMARK   68  A    between atoms: _161  and  _164
REMARK   69  A    between atoms: _164  and  _165
REMARK   70  A    between atoms: _168  and  _170
REMARK   71  A    between atoms: _170  and  _171
REMARK   72  A    between atoms: _170  and  _173
REMARK   73  A    between atoms: _173  and  _174
REMARK   74  A    between atoms: _176  and  _178
REMARK   75  A    between atoms: _178  and  _179
REMARK   76  A    between atoms: _178  and  _181
REMARK   77  A    between atoms: _181  and  _182
REMARK   78  A    between atoms: _187  and  _188
REMARK   79  A    between atoms: _190  and  _192
REMARK   80  A    between atoms: _192  and  _193
REMARK   81  A    between atoms: _195  and  _197
REMARK   82  A    between atoms: _197  and  _198
REMARK   83  A    between atoms: _197  and  _200
REMARK   84  A    between atoms: _200  and  _201
REMARK   85  A    between atoms: _204  and  _206
REMARK   86  A    between atoms: _206  and  _207
REMARK   87  A    between atoms: _209  and  _211
REMARK   88  A    between atoms: _211  and  _212
REMARK   89  A    between atoms: _211  and  _214
REMARK   90  A    between atoms: _214  and  _215
REMARK   91  A    between atoms: _217  and  _219
REMARK   92  A    between atoms: _219  and  _220
REMARK   93  A    between atoms: _219  and  _222
REMARK   94  A    between atoms: _222  and  _223
REMARK   95  A    between atoms: _225  and  _227
REMARK   96  A    between atoms: _227  and  _228
REMARK   97  A    between atoms: _227  and  _230
REMARK   98  A    between atoms: _230  and  _231
REMARK   99  A    between atoms: _233  and  _235
REMARK  100  A    between atoms: _235  and  _236
REMARK  101  A    between atoms: _235  and  _238
REMARK  102  A    between atoms: _238  and  _239
REMARK  103  A    between atoms: _241  and  _243
REMARK  104  A    between atoms: _243  and  _244
REMARK  105  A    between atoms: _243  and  _246
REMARK  106  A    between atoms: _246  and  _247
REMARK  107  A    between atoms: _253  and  _255
REMARK  108  A    between atoms: _255  and  _256
REMARK  109  A    between atoms: _255  and  _258
REMARK  110  A    between atoms: _258  and  _259
REMARK  111  A    between atoms: _259  and  _260
REMARK  112  A    between atoms: _263  and  _265
REMARK  113  A    between atoms: _265  and  _266
REMARK  114  A    between atoms: _265  and  _268
REMARK  115  A    between atoms: _268  and  _269
REMARK  116  A    between atoms: _272  and  _274
REMARK  117  A    between atoms: _274  and  _275
REMARK  118  A    between atoms: _274  and  _277
REMARK  119  A    between atoms: _277  and  _278
REMARK  120  A    between atoms: _280  and  _282
REMARK  121  A    between atoms: _282  and  _283
REMARK  122  A    between atoms: _282  and  _285
REMARK  123  A    between atoms: _285  and  _286
REMARK  124  A    between atoms: _289  and  _291
REMARK  125  A    between atoms: _291  and  _292
REMARK  126  A    between atoms: _291  and  _294
REMARK  127  A    between atoms: _294  and  _295
REMARK  128  A    between atoms: _298  and  _300
REMARK  129  A    between atoms: _300  and  _301
REMARK  130  A    between atoms: _303  and  _305
REMARK  131  A    between atoms: _305  and  _306
REMARK  132  A    between atoms: _305  and  _308
REMARK  133  A    between atoms: _308  and  _309
REMARK  134  A    between atoms: _312  and  _314
REMARK  135  A    between atoms: _314  and  _315
REMARK  136  A    between atoms: _314  and  _317
REMARK  137  A    between atoms: _317  and  _318
REMARK  138  A    between atoms: _321  and  _323
REMARK  139  A    between atoms: _323  and  _324
REMARK  140  A    between atoms: _323  and  _326
REMARK  141  A    between atoms: _326  and  _327
REMARK  142  A    between atoms: _330  and  _332
REMARK  143  A    between atoms: _332  and  _333
REMARK  144  A    between atoms: _336  and  _338
REMARK  145  A    between atoms: _338  and  _339
REMARK  146  A    between atoms: _338  and  _341
REMARK  147  A    between atoms: _341  and  _342
REMARK  148  A    between atoms: _348  and  _350
REMARK  149  A    between atoms: _350  and  _351
REMARK  150  A    between atoms: _350  and  _353
REMARK  151  A    between atoms: _353  and  _354
REMARK  152  A    between atoms: _356  and  _358
REMARK  153  A    between atoms: _358  and  _359
REMARK  154  A    between atoms: _358  and  _361
REMARK  155  A    between atoms: _361  and  _362
REMARK  156  A    between atoms: _365  and  _367
REMARK  157  A    between atoms: _367  and  _368
REMARK  158  A    between atoms: _367  and  _370
REMARK  159  A    between atoms: _370  and  _371
REMARK  160  A    between atoms: _374  and  _376
REMARK  161  A    between atoms: _376  and  _377
REMARK  162  A    between atoms: _376  and  _379
REMARK  163  A    between atoms: _379  and  _380
REMARK  164  A    between atoms: _385  and  _387
REMARK  165  A    between atoms: _387  and  _388
REMARK  166  A    between atoms: _387  and  _390
REMARK  167  A    between atoms: _390  and  _391
REMARK  168  A    between atoms: _394  and  _396
REMARK  169  A    between atoms: _396  and  _397
REMARK  170  A    between atoms: _396  and  _399
REMARK  171  A    between atoms: _402  and  _404
REMARK  172  A    between atoms: _404  and  _405
REMARK  173  A    between atoms: _404  and  _407
REMARK  174  A    between atoms: _407  and  _408
REMARK  175  A    between atoms: _408  and  _409
REMARK  176  A    between atoms: _414  and  _416
REMARK  177  A    between atoms: _416  and  _417
REMARK  178  A    between atoms: _416  and  _419
REMARK  179  A    between atoms: _419  and  _420
REMARK  180  A    between atoms: _420  and  _421
REMARK  181  A    between atoms: _426  and  _428
REMARK  182  A    between atoms: _428  and  _429
REMARK  183  A    between atoms: _428  and  _431
REMARK  184  A    between atoms: _431  and  _432
REMARK  185  A    between atoms: _438  and  _440
REMARK  186  A    between atoms: _440  and  _441
REMARK  187  A    between atoms: _440  and  _443
REMARK  188  A    between atoms: _443  and  _444
REMARK  189  A    between atoms: _454  and  _456
REMARK  190  A    between atoms: _456  and  _457
REMARK  191  A    between atoms: _459  and  _461
REMARK  192  A    between atoms: _461  and  _462
REMARK  193  A    between atoms: _461  and  _464
REMARK  194  A    between atoms: _464  and  _465
REMARK  195  A    between atoms: _468  and  _470
REMARK  196  A    between atoms: _470  and  _471
REMARK  197  A    between atoms: _474  and  _476
REMARK  198  A    between atoms: _476  and  _477
REMARK  199  A    between atoms: _476  and  _479
REMARK  200  A    between atoms: _479  and  _480
REMARK  201  A    between atoms: _483  and  _485
REMARK  202  A    between atoms: _485  and  _486
REMARK  203  A    between atoms: _485  and  _488
REMARK  204  A    between atoms: _488  and  _489
REMARK  205  A    between atoms: _492  and  _494
REMARK  206  A    between atoms: _494  and  _495
REMARK  207  A    between atoms: _497  and  _499
REMARK  208  A    between atoms: _499  and  _500
REMARK  209  A    between atoms: _499  and  _502
REMARK  210  A    between atoms: _502  and  _503
REMARK  211  A    between atoms: _506  and  _508
REMARK  212  A    between atoms: _508  and  _509
REMARK  213  A    between atoms: _508  and  _511
REMARK  214  A    between atoms: _511  and  _512
REMARK  215  A    between atoms: _515  and  _517
REMARK  216  A    between atoms: _517  and  _518
REMARK  217  A    between atoms: _517  and  _520
REMARK  218  A    between atoms: _520  and  _521
REMARK  219  A    between atoms: _524  and  _526
REMARK  220  A    between atoms: _526  and  _527
REMARK  221  A    between atoms: _526  and  _529
REMARK  222  A    between atoms: _529  and  _530
REMARK  223  A    between atoms: _533  and  _535
REMARK  224  A    between atoms: _535  and  _536
REMARK  225  A    between atoms: _535  and  _538
REMARK  226  A    between atoms: _538  and  _539
REMARK  227  A    between atoms: _544  and  _545
REMARK  228  A    between atoms: _547  and  _549
REMARK  229  A    between atoms: _549  and  _550
REMARK  230  A    between atoms: _549  and  _552
REMARK  231  A    between atoms: _555  and  _557
REMARK  232  A    between atoms: _557  and  _558
REMARK  233  A    between atoms: _560  and  _562
REMARK  234  A    between atoms: _562  and  _563
REMARK  235  A    between atoms: _562  and  _565
REMARK  236  A    between atoms: _565  and  _566
REMARK  237  A    between atoms: _572  and  _574
REMARK  238  A    between atoms: _574  and  _575
REMARK  239  A    between atoms: _574  and  _577
REMARK  240  A    between atoms: _577  and  _578
REMARK  241  A    between atoms: _584  and  _586
REMARK  242  A    between atoms: _586  and  _587
REMARK  243  A    between atoms: _589  and  _591
REMARK  244  A    between atoms: _591  and  _592
REMARK  245  A    between atoms: _594  and  _596
REMARK  246  A    between atoms: _596  and  _597
REMARK  247  A    between atoms: _596  and  _599
REMARK  248  A    between atoms: _599  and  _600
REMARK  249  A    between atoms: _600  and  _601
REMARK  250  A    between atoms: _606  and  _608
REMARK  251  A    between atoms: _608  and  _609
REMARK  252  A    between atoms: _608  and  _611
REMARK  253  A    between atoms: _611  and  _612
REMARK  254  A    between atoms: _614  and  _616
REMARK  255  A    between atoms: _616  and  _617
REMARK  256  A    between atoms: _619  and  _621
REMARK  257  A    between atoms: _621  and  _622
REMARK  258  A    between atoms: _621  and  _624
REMARK  259  A    between atoms: _624  and  _625
REMARK  260  A    between atoms: _628  and  _630
REMARK  261  A    between atoms: _630  and  _631
REMARK  262  A    between atoms: _633  and  _635
REMARK  263  A    between atoms: _635  and  _636
REMARK  264  A    between atoms: _635  and  _638
REMARK  265  A    between atoms: _638  and  _639
REMARK  266  A    between atoms: _642  and  _644
REMARK  267  A    between atoms: _644  and  _645
REMARK  268  A    between atoms: _644  and  _647
REMARK  269  A    between atoms: _647  and  _648
REMARK  270  A    between atoms: _653  and  _655
REMARK  271  A    between atoms: _655  and  _656
REMARK  272  A    between atoms: _655  and  _658
REMARK  273  A    between atoms: _658  and  _659
REMARK  274  A    between atoms: _662  and  _664
REMARK  275  A    between atoms: _664  and  _665
REMARK  276  A    between atoms: _664  and  _667
REMARK  277  A    between atoms: _667  and  _668
REMARK  278  A    between atoms: _674  and  _676
REMARK  279  A    between atoms: _676  and  _677
REMARK  280  A    between atoms: _679  and  _681
REMARK  281  A    between atoms: _681  and  _682
REMARK  282  A    between atoms: _681  and  _684
REMARK  283  A    between atoms: _684  and  _685
REMARK                            x       y       z     vdW  Elec       q    Type
REMARK                         _______ _______ _______ _____ _____    ______ ____
ROOT
ATOM      1  O   HOH     1       8.374  28.644  15.780  0.00  0.00    +0.000 OA
ENDROOT
TORSDOF 0
REMARK  Name = ../refined-set-2016/5er2/5er2_pocket.pdb
REMARK  283 active torsions:
REMARK  status: ('A' for Active; 'I' for Inactive)
REMARK    1  A    between atoms: _1  and  _3
REMARK    2  A    between atoms: _3  and  _4
REMARK    3  A    between atoms: _3  and  _6
REMARK    4  A    between atoms: _6  and  _7
REMARK    5  A    between atoms: _10  and  _12
REMARK    6  A    between atoms: _12  and  _13
REMARK    7  A    between atoms: _12  and  _15
REMARK    8  A    between atoms: _15  and  _16
REMARK    9  A    between atoms: _19  and  _21
REMARK   10  A    between atoms: _21  and  _22
REMARK   11  A    between atoms: _21  and  _24
REMARK   12  A    between atoms: _24  and  _25
REMARK   13  A    between atoms: _28  and  _30
REMARK   14  A    between atoms: _30  and  _31
REMARK   15  A    between atoms: _30  and  _33
REMARK   16  A    between atoms: _33  and  _34
REMARK   17  A    between atoms: _37  and  _39
REMARK   18  A    between atoms: _39  and  _40
REMARK   19  A    between atoms: _39  and  _42
REMARK   20  A    between atoms: _42  and  _43
REMARK   21  A    between atoms: _46  and  _48
REMARK   22  A    between atoms: _48  and  _49
REMARK   23  A    between atoms: _52  and  _54
REMARK   24  A    between atoms: _54  and  _55
REMARK   25  A    between atoms: _54  and  _57
REMARK   26  A    between atoms: _57  and  _58
REMARK   27  A    between atoms: _63  and  _64
REMARK   28  A    between atoms: _66  and  _68
REMARK   29  A    between atoms: _68  and  _69
REMARK   30  A    between atoms: _68  and  _71
REMARK   31  A    between atoms: _71  and  _72
REMARK   32  A    between atoms: _75  and  _77
REMARK   33  A    between atoms: _77  and  _78
REMARK   34  A    between atoms: _77  and  _80
REMARK   35  A    between atoms: _80  and  _81
REMARK   36  A    between atoms: _87  and  _89
REMARK   37  A    between atoms: _89  and  _90
REMARK   38  A    between atoms: _89  and  _92
REMARK   39  A    between atoms: _92  and  _93
REMARK   40  A    between atoms: _96  and  _98
REMARK   41  A    between atoms: _98  and  _99
REMARK   42  A    between atoms: _98  and  _101
REMARK   43  A    between atoms: _101  and  _102
REMARK   44  A    between atoms: _105  and  _107
REMARK   45  A    between atoms: _107  and  _108
REMARK   46  A    between atoms: _110  and  _112
REMARK   47  A    between atoms: _112  and  _113
REMARK   48  A    between atoms: _112  and  _115
REMARK   49  A    between atoms: _115  and  _116
REMARK   50  A    between atoms: _118  and  _120
REMARK   51  A    between atoms: _120  and  _121
REMARK   52  A    between atoms: _120  and  _123
REMARK   53  A    between atoms: _123  and  _124
REMARK   54  A    between atoms: _126  and  _128
REMARK   55  A    between atoms: _128  and  _129
REMARK   56  A    between atoms: _128  and  _131
REMARK   57  A    between atoms: _131  and  _132
REMARK   58  A    between atoms: _135  and  _137
REMARK   59  A    between atoms: _137  and  _138
REMARK   60  A    between atoms: _137  and  _140
REMARK   61  A    between atoms: _140  and  _141
REMARK   62  A    between atoms: _151  and  _153
REMARK   63  A    between atoms: _153  and  _154
REMARK   64  A    between atoms: _153  and  _156
REMARK   65  A    between atoms: _156  and  _157
REMARK   66  A    between atoms: _159  and  _161
REMARK   67  A    between atoms: _161  and  _162
REMARK   68  A    between atoms: _161  and  _164
REMARK   69  A    between atoms: _164  and  _165
REMARK   70  A    between atoms: _168  and  _170
REMARK   71  A    between atoms: _170  and  _171
REMARK   72  A    between atoms: _170  and  _173
REMARK   73  A    between atoms: _173  and  _174
REMARK   74  A    between atoms: _176  and  _178
REMARK   75  A    between atoms: _178  and  _179
REMARK   76  A    between atoms: _178  and  _181
REMARK   77  A    between atoms: _181  and  _182
REMARK   78  A    between atoms: _187  and  _188
REMARK   79  A    between atoms: _190  and  _192
REMARK   80  A    between atoms: _192  and  _193
REMARK   81  A    between atoms: _195  and  _197
REMARK   82  A    between atoms: _197  and  _198
REMARK   83  A    between atoms: _197  and  _200
REMARK   84  A    between atoms: _200  and  _201
REMARK   85  A    between atoms: _204  and  _206
REMARK   86  A    between atoms: _206  and  _207
REMARK   87  A    between atoms: _209  and  _211
REMARK   88  A    between atoms: _211  and  _212
REMARK   89  A    between atoms: _211  and  _214
REMARK   90  A    between atoms: _214  and  _215
REMARK   91  A    between atoms: _217  and  _219
REMARK   92  A    between atoms: _219  and  _220
REMARK   93  A    between atoms: _219  and  _222
REMARK   94  A    between atoms: _222  and  _223
REMARK   95  A    between atoms: _225  and  _227
REMARK   96  A    between atoms: _227  and  _228
REMARK   97  A    between atoms: _227  and  _230
REMARK   98  A    between atoms: _230  and  _231
REMARK   99  A    between atoms: _233  and  _235
REMARK  100  A    between atoms: _235  and  _236
REMARK  101  A    between atoms: _235  and  _238
REMARK  102  A    between atoms: _238  and  _239
REMARK  103  A    between atoms: _241  and  _243
REMARK  104  A    between atoms: _243  and  _244
REMARK  105  A    between atoms: _243  and  _246
REMARK  106  A    between atoms: _246  and  _247
REMARK  107  A    between atoms: _253  and  _255
REMARK  108  A    between atoms: _255  and  _256
REMARK  109  A    between atoms: _255  and  _258
REMARK  110  A    between atoms: _258  and  _259
REMARK  111  A    between atoms: _259  and  _260
REMARK  112  A    between atoms: _263  and  _265
REMARK  113  A    between atoms: _265  and  _266
REMARK  114  A    between atoms: _265  and  _268
REMARK  115  A    between atoms: _268  and  _269
REMARK  116  A    between atoms: _272  and  _274
REMARK  117  A    between atoms: _274  and  _275
REMARK  118  A    between atoms: _274  and  _277
REMARK  119  A    between atoms: _277  and  _278
REMARK  120  A    between atoms: _280  and  _282
REMARK  121  A    between atoms: _282  and  _283
REMARK  122  A    between atoms: _282  and  _285
REMARK  123  A    between atoms: _285  and  _286
REMARK  124  A    between atoms: _289  and  _291
REMARK  125  A    between atoms: _291  and  _292
REMARK  126  A    between atoms: _291  and  _294
REMARK  127  A    between atoms: _294  and  _295
REMARK  128  A    between atoms: _298  and  _300
REMARK  129  A    between atoms: _300  and  _301
REMARK  130  A    between atoms: _303  and  _305
REMARK  131  A    between atoms: _305  and  _306
REMARK  132  A    between atoms: _305  and  _308
REMARK  133  A    between atoms: _308  and  _309
REMARK  134  A    between atoms: _312  and  _314
REMARK  135  A    between atoms: _314  and  _315
REMARK  136  A    between atoms: _314  and  _317
REMARK  137  A    between atoms: _317  and  _318
REMARK  138  A    between atoms: _321  and  _323
REMARK  139  A    between atoms: _323  and  _324
REMARK  140  A    between atoms: _323  and  _326
REMARK  141  A    between atoms: _326  and  _327
REMARK  142  A    between atoms: _330  and  _332
REMARK  143  A    between atoms: _332  and  _333
REMARK  144  A    between atoms: _336  and  _338
REMARK  145  A    between atoms: _338  and  _339
REMARK  146  A    between atoms: _338  and  _341
REMARK  147  A    between atoms: _341  and  _342
REMARK  148  A    between atoms: _348  and  _350
REMARK  149  A    between atoms: _350  and  _351
REMARK  150  A    between atoms: _350  and  _353
REMARK  151  A    between atoms: _353  and  _354
REMARK  152  A    between atoms: _356  and  _358
REMARK  153  A    between atoms: _358  and  _359
REMARK  154  A    between atoms: _358  and  _361
REMARK  155  A    between atoms: _361  and  _362
REMARK  156  A    between atoms: _365  and  _367
REMARK  157  A    between atoms: _367  and  _368
REMARK  158  A    between atoms: _367  and  _370
REMARK  159  A    between atoms: _370  and  _371
REMARK  160  A    between atoms: _374  and  _376
REMARK  161  A    between atoms: _376  and  _377
REMARK  162  A    between atoms: _376  and  _379
REMARK  163  A    between atoms: _379  and  _380
REMARK  164  A    between atoms: _385  and  _387
REMARK  165  A    between atoms: _387  and  _388
REMARK  166  A    between atoms: _387  and  _390
REMARK  167  A    between atoms: _390  and  _391
REMARK  168  A    between atoms: _394  and  _396
REMARK  169  A    between atoms: _396  and  _397
REMARK  170  A    between atoms: _396  and  _399
REMARK  171  A    between atoms: _402  and  _404
REMARK  172  A    between atoms: _404  and  _405
REMARK  173  A    between atoms: _404  and  _407
REMARK  174  A    between atoms: _407  and  _408
REMARK  175  A    between atoms: _408  and  _409
REMARK  176  A    between atoms: _414  and  _416
REMARK  177  A    between atoms: _416  and  _417
REMARK  178  A    between atoms: _416  and  _419
REMARK  179  A    between atoms: _419  and  _420
REMARK  180  A    between atoms: _420  and  _421
REMARK  181  A    between atoms: _426  and  _428
REMARK  182  A    between atoms: _428  and  _429
REMARK  183  A    between atoms: _428  and  _431
REMARK  184  A    between atoms: _431  and  _432
REMARK  185  A    between atoms: _438  and  _440
REMARK  186  A    between atoms: _440  and  _441
REMARK  187  A    between atoms: _440  and  _443
REMARK  188  A    between atoms: _443  and  _444
REMARK  189  A    between atoms: _454  and  _456
REMARK  190  A    between atoms: _456  and  _457
REMARK  191  A    between atoms: _459  and  _461
REMARK  192  A    between atoms: _461  and  _462
REMARK  193  A    between atoms: _461  and  _464
REMARK  194  A    between atoms: _464  and  _465
REMARK  195  A    between atoms: _468  and  _470
REMARK  196  A    between atoms: _470  and  _471
REMARK  197  A    between atoms: _474  and  _476
REMARK  198  A    between atoms: _476  and  _477
REMARK  199  A    between atoms: _476  and  _479
REMARK  200  A    between atoms: _479  and  _480
REMARK  201  A    between atoms: _483  and  _485
REMARK  202  A    between atoms: _485  and  _486
REMARK  203  A    between atoms: _485  and  _488
REMARK  204  A    between atoms: _488  and  _489
REMARK  205  A    between atoms: _492  and  _494
REMARK  206  A    between atoms: _494  and  _495
REMARK  207  A    between atoms: _497  and  _499
REMARK  208  A    between atoms: _499  and  _500
REMARK  209  A    between atoms: _499  and  _502
REMARK  210  A    between atoms: _502  and  _503
REMARK  211  A    between atoms: _506  and  _508
REMARK  212  A    between atoms: _508  and  _509
REMARK  213  A    between atoms: _508  and  _511
REMARK  214  A    between atoms: _511  and  _512
REMARK  215  A    between atoms: _515  and  _517
REMARK  216  A    between atoms: _517  and  _518
REMARK  217  A    between atoms: _517  and  _520
REMARK  218  A    between atoms: _520  and  _521
REMARK  219  A    between atoms: _524  and  _526
REMARK  220  A    between atoms: _526  and  _527
REMARK  221  A    between atoms: _526  and  _529
REMARK  222  A    between atoms: _529  and  _530
REMARK  223  A    between atoms: _533  and  _535
REMARK  224  A    between atoms: _535  and  _536
REMARK  225  A    between atoms: _535  and  _538
REMARK  226  A    between atoms: _538  and  _539
REMARK  227  A    between atoms: _544  and  _545
REMARK  228  A    between atoms: _547  and  _549
REMARK  229  A    between atoms: _549  and  _550
REMARK  230  A    between atoms: _549  and  _552
REMARK  231  A    between atoms: _555  and  _557
REMARK  232  A    between atoms: _557  and  _558
REMARK  233  A    between atoms: _560  and  _562
REMARK  234  A    between atoms: _562  and  _563
REMARK  235  A    between atoms: _562  and  _565
REMARK  236  A    between atoms: _565  and  _566
REMARK  237  A    between atoms: _572  and  _574
REMARK  238  A    between atoms: _574  and  _575
REMARK  239  A    between atoms: _574  and  _577
REMARK  240  A    between atoms: _577  and  _578
REMARK  241  A    between atoms: _584  and  _586
REMARK  242  A    between atoms: _586  and  _587
REMARK  243  A    between atoms: _589  and  _591
REMARK  244  A    between atoms: _591  and  _592
REMARK  245  A    between atoms: _594  and  _596
REMARK  246  A    between atoms: _596  and  _597
REMARK  247  A    between atoms: _596  and  _599
REMARK  248  A    between atoms: _599  and  _600
REMARK  249  A    between atoms: _600  and  _601
REMARK  250  A    between atoms: _606  and  _608
REMARK  251  A    between atoms: _608  and  _609
REMARK  252  A    between atoms: _608  and  _611
REMARK  253  A    between atoms: _611  and  _612
REMARK  254  A    between atoms: _614  and  _616
REMARK  255  A    between atoms: _616  and  _617
REMARK  256  A    between atoms: _619  and  _621
REMARK  257  A    between atoms: _621  and  _622
REMARK  258  A    between atoms: _621  and  _624
REMARK  259  A    between atoms: _624  and  _625
REMARK  260  A    between atoms: _628  and  _630
REMARK  261  A    between atoms: _630  and  _631
REMARK  262  A    between atoms: _633  and  _635
REMARK  263  A    between atoms: _635  and  _636
REMARK  264  A    between atoms: _635  and  _638
REMARK  265  A    between atoms: _638  and  _639
REMARK  266  A    between atoms: _642  and  _644
REMARK  267  A    between atoms: _644  and  _645
REMARK  268  A    between atoms: _644  and  _647
REMARK  269  A    between atoms: _647  and  _648
REMARK  270  A    between atoms: _653  and  _655
REMARK  271  A    between atoms: _655  and  _656
REMARK  272  A    between atoms: _655  and  _658
REMARK  273  A    between atoms: _658  and  _659
REMARK  274  A    between atoms: _662  and  _664
REMARK  275  A    between atoms: _664  and  _665
REMARK  276  A    between atoms: _664  and  _667
REMARK  277  A    between atoms: _667  and  _668
REMARK  278  A    between atoms: _674  and  _676
REMARK  279  A    between atoms: _676  and  _677
REMARK  280  A    between atoms: _679  and  _681
REMARK  281  A    between atoms: _681  and  _682
REMARK  282  A    between atoms: _681  and  _684
REMARK  283  A    between atoms: _684  and  _685
REMARK                            x       y       z     vdW  Elec       q    Type
REMARK                         _______ _______ _______ _____ _____    ______ ____
ROOT
ATOM      1  O   HOH     1       7.492  26.479  15.068  0.00  0.00    +0.000 OA
ENDROOT
TORSDOF 0
REMARK  Name = ../refined-set-2016/5er2/5er2_pocket.pdb
REMARK  283 active torsions:
REMARK  status: ('A' for Active; 'I' for Inactive)
REMARK    1  A    between atoms: _1  and  _3
REMARK    2  A    between atoms: _3  and  _4
REMARK    3  A    between atoms: _3  and  _6
REMARK    4  A    between atoms: _6  and  _7
REMARK    5  A    between atoms: _10  and  _12
REMARK    6  A    between atoms: _12  and  _13
REMARK    7  A    between atoms: _12  and  _15
REMARK    8  A    between atoms: _15  and  _16
REMARK    9  A    between atoms: _19  and  _21
REMARK   10  A    between atoms: _21  and  _22
REMARK   11  A    between atoms: _21  and  _24
REMARK   12  A    between atoms: _24  and  _25
REMARK   13  A    between atoms: _28  and  _30
REMARK   14  A    between atoms: _30  and  _31
REMARK   15  A    between atoms: _30  and  _33
REMARK   16  A    between atoms: _33  and  _34
REMARK   17  A    between atoms: _37  and  _39
REMARK   18  A    between atoms: _39  and  _40
REMARK   19  A    between atoms: _39  and  _42
REMARK   20  A    between atoms: _42  and  _43
REMARK   21  A    between atoms: _46  and  _48
REMARK   22  A    between atoms: _48  and  _49
REMARK   23  A    between atoms: _52  and  _54
REMARK   24  A    between atoms: _54  and  _55
REMARK   25  A    between atoms: _54  and  _57
REMARK   26  A    between atoms: _57  and  _58
REMARK   27  A    between atoms: _63  and  _64
REMARK   28  A    between atoms: _66  and  _68
REMARK   29  A    between atoms: _68  and  _69
REMARK   30  A    between atoms: _68  and  _71
REMARK   31  A    between atoms: _71  and  _72
REMARK   32  A    between atoms: _75  and  _77
REMARK   33  A    between atoms: _77  and  _78
REMARK   34  A    between atoms: _77  and  _80
REMARK   35  A    between atoms: _80  and  _81
REMARK   36  A    between atoms: _87  and  _89
REMARK   37  A    between atoms: _89  and  _90
REMARK   38  A    between atoms: _89  and  _92
REMARK   39  A    between atoms: _92  and  _93
REMARK   40  A    between atoms: _96  and  _98
REMARK   41  A    between atoms: _98  and  _99
REMARK   42  A    between atoms: _98  and  _101
REMARK   43  A    between atoms: _101  and  _102
REMARK   44  A    between atoms: _105  and  _107
REMARK   45  A    between atoms: _107  and  _108
REMARK   46  A    between atoms: _110  and  _112
REMARK   47  A    between atoms: _112  and  _113
REMARK   48  A    between atoms: _112  and  _115
REMARK   49  A    between atoms: _115  and  _116
REMARK   50  A    between atoms: _118  and  _120
REMARK   51  A    between atoms: _120  and  _121
REMARK   52  A    between atoms: _120  and  _123
REMARK   53  A    between atoms: _123  and  _124
REMARK   54  A    between atoms: _126  and  _128
REMARK   55  A    between atoms: _128  and  _129
REMARK   56  A    between atoms: _128  and  _131
REMARK   57  A    between atoms: _131  and  _132
REMARK   58  A    between atoms: _135  and  _137
REMARK   59  A    between atoms: _137  and  _138
REMARK   60  A    between atoms: _137  and  _140
REMARK   61  A    between atoms: _140  and  _141
REMARK   62  A    between atoms: _151  and  _153
REMARK   63  A    between atoms: _153  and  _154
REMARK   64  A    between atoms: _153  and  _156
REMARK   65  A    between atoms: _156  and  _157
REMARK   66  A    between atoms: _159  and  _161
REMARK   67  A    between atoms: _161  and  _162
REMARK   68  A    between atoms: _161  and  _164
REMARK   69  A    between atoms: _164  and  _165
REMARK   70  A    between atoms: _168  and  _170
REMARK   71  A    between atoms: _170  and  _171
REMARK   72  A    between atoms: _170  and  _173
REMARK   73  A    between atoms: _173  and  _174
REMARK   74  A    between atoms: _176  and  _178
REMARK   75  A    between atoms: _178  and  _179
REMARK   76  A    between atoms: _178  and  _181
REMARK   77  A    between atoms: _181  and  _182
REMARK   78  A    between atoms: _187  and  _188
REMARK   79  A    between atoms: _190  and  _192
REMARK   80  A    between atoms: _192  and  _193
REMARK   81  A    between atoms: _195  and  _197
REMARK   82  A    between atoms: _197  and  _198
REMARK   83  A    between atoms: _197  and  _200
REMARK   84  A    between atoms: _200  and  _201
REMARK   85  A    between atoms: _204  and  _206
REMARK   86  A    between atoms: _206  and  _207
REMARK   87  A    between atoms: _209  and  _211
REMARK   88  A    between atoms: _211  and  _212
REMARK   89  A    between atoms: _211  and  _214
REMARK   90  A    between atoms: _214  and  _215
REMARK   91  A    between atoms: _217  and  _219
REMARK   92  A    between atoms: _219  and  _220
REMARK   93  A    between atoms: _219  and  _222
REMARK   94  A    between atoms: _222  and  _223
REMARK   95  A    between atoms: _225  and  _227
REMARK   96  A    between atoms: _227  and  _228
REMARK   97  A    between atoms: _227  and  _230
REMARK   98  A    between atoms: _230  and  _231
REMARK   99  A    between atoms: _233  and  _235
REMARK  100  A    between atoms: _235  and  _236
REMARK  101  A    between atoms: _235  and  _238
REMARK  102  A    between atoms: _238  and  _239
REMARK  103  A    between atoms: _241  and  _243
REMARK  104  A    between atoms: _243  and  _244
REMARK  105  A    between atoms: _243  and  _246
REMARK  106  A    between atoms: _246  and  _247
REMARK  107  A    between atoms: _253  and  _255
REMARK  108  A    between atoms: _255  and  _256
REMARK  109  A    between atoms: _255  and  _258
REMARK  110  A    between atoms: _258  and  _259
REMARK  111  A    between atoms: _259  and  _260
REMARK  112  A    between atoms: _263  and  _265
REMARK  113  A    between atoms: _265  and  _266
REMARK  114  A    between atoms: _265  and  _268
REMARK  115  A    between atoms: _268  and  _269
REMARK  116  A    between atoms: _272  and  _274
REMARK  117  A    between atoms: _274  and  _275
REMARK  118  A    between atoms: _274  and  _277
REMARK  119  A    between atoms: _277  and  _278
REMARK  120  A    between atoms: _280  and  _282
REMARK  121  A    between atoms: _282  and  _283
REMARK  122  A    between atoms: _282  and  _285
REMARK  123  A    between atoms: _285  and  _286
REMARK  124  A    between atoms: _289  and  _291
REMARK  125  A    between atoms: _291  and  _292
REMARK  126  A    between atoms: _291  and  _294
REMARK  127  A    between atoms: _294  and  _295
REMARK  128  A    between atoms: _298  and  _300
REMARK  129  A    between atoms: _300  and  _301
REMARK  130  A    between atoms: _303  and  _305
REMARK  131  A    between atoms: _305  and  _306
REMARK  132  A    between atoms: _305  and  _308
REMARK  133  A    between atoms: _308  and  _309
REMARK  134  A    between atoms: _312  and  _314
REMARK  135  A    between atoms: _314  and  _315
REMARK  136  A    between atoms: _314  and  _317
REMARK  137  A    between atoms: _317  and  _318
REMARK  138  A    between atoms: _321  and  _323
REMARK  139  A    between atoms: _323  and  _324
REMARK  140  A    between atoms: _323  and  _326
REMARK  141  A    between atoms: _326  and  _327
REMARK  142  A    between atoms: _330  and  _332
REMARK  143  A    between atoms: _332  and  _333
REMARK  144  A    between atoms: _336  and  _338
REMARK  145  A    between atoms: _338  and  _339
REMARK  146  A    between atoms: _338  and  _341
REMARK  147  A    between atoms: _341  and  _342
REMARK  148  A    between atoms: _348  and  _350
REMARK  149  A    between atoms: _350  and  _351
REMARK  150  A    between atoms: _350  and  _353
REMARK  151  A    between atoms: _353  and  _354
REMARK  152  A    between atoms: _356  and  _358
REMARK  153  A    between atoms: _358  and  _359
REMARK  154  A    between atoms: _358  and  _361
REMARK  155  A    between atoms: _361  and  _362
REMARK  156  A    between atoms: _365  and  _367
REMARK  157  A    between atoms: _367  and  _368
REMARK  158  A    between atoms: _367  and  _370
REMARK  159  A    between atoms: _370  and  _371
REMARK  160  A    between atoms: _374  and  _376
REMARK  161  A    between atoms: _376  and  _377
REMARK  162  A    between atoms: _376  and  _379
REMARK  163  A    between atoms: _379  and  _380
REMARK  164  A    between atoms: _385  and  _387
REMARK  165  A    between atoms: _387  and  _388
REMARK  166  A    between atoms: _387  and  _390
REMARK  167  A    between atoms: _390  and  _391
REMARK  168  A    between atoms: _394  and  _396
REMARK  169  A    between atoms: _396  and  _397
REMARK  170  A    between atoms: _396  and  _399
REMARK  171  A    between atoms: _402  and  _404
REMARK  172  A    between atoms: _404  and  _405
REMARK  173  A    between atoms: _404  and  _407
REMARK  174  A    between atoms: _407  and  _408
REMARK  175  A    between atoms: _408  and  _409
REMARK  176  A    between atoms: _414  and  _416
REMARK  177  A    between atoms: _416  and  _417
REMARK  178  A    between atoms: _416  and  _419
REMARK  179  A    between atoms: _419  and  _420
REMARK  180  A    between atoms: _420  and  _421
REMARK  181  A    between atoms: _426  and  _428
REMARK  182  A    between atoms: _428  and  _429
REMARK  183  A    between atoms: _428  and  _431
REMARK  184  A    between atoms: _431  and  _432
REMARK  185  A    between atoms: _438  and  _440
REMARK  186  A    between atoms: _440  and  _441
REMARK  187  A    between atoms: _440  and  _443
REMARK  188  A    between atoms: _443  and  _444
REMARK  189  A    between atoms: _454  and  _456
REMARK  190  A    between atoms: _456  and  _457
REMARK  191  A    between atoms: _459  and  _461
REMARK  192  A    between atoms: _461  and  _462
REMARK  193  A    between atoms: _461  and  _464
REMARK  194  A    between atoms: _464  and  _465
REMARK  195  A    between atoms: _468  and  _470
REMARK  196  A    between atoms: _470  and  _471
REMARK  197  A    between atoms: _474  and  _476
REMARK  198  A    between atoms: _476  and  _477
REMARK  199  A    between atoms: _476  and  _479
REMARK  200  A    between atoms: _479  and  _480
REMARK  201  A    between atoms: _483  and  _485
REMARK  202  A    between atoms: _485  and  _486
REMARK  203  A    between atoms: _485  and  _488
REMARK  204  A    between atoms: _488  and  _489
REMARK  205  A    between atoms: _492  and  _494
REMARK  206  A    between atoms: _494  and  _495
REMARK  207  A    between atoms: _497  and  _499
REMARK  208  A    between atoms: _499  and  _500
REMARK  209  A    between atoms: _499  and  _502
REMARK  210  A    between atoms: _502  and  _503
REMARK  211  A    between atoms: _506  and  _508
REMARK  212  A    between atoms: _508  and  _509
REMARK  213  A    between atoms: _508  and  _511
REMARK  214  A    between atoms: _511  and  _512
REMARK  215  A    between atoms: _515  and  _517
REMARK  216  A    between atoms: _517  and  _518
REMARK  217  A    between atoms: _517  and  _520
REMARK  218  A    between atoms: _520  and  _521
REMARK  219  A    between atoms: _524  and  _526
REMARK  220  A    between atoms: _526  and  _527
REMARK  221  A    between atoms: _526  and  _529
REMARK  222  A    between atoms: _529  and  _530
REMARK  223  A    between atoms: _533  and  _535
REMARK  224  A    between atoms: _535  and  _536
REMARK  225  A    between atoms: _535  and  _538
REMARK  226  A    between atoms: _538  and  _539
REMARK  227  A    between atoms: _544  and  _545
REMARK  228  A    between atoms: _547  and  _549
REMARK  229  A    between atoms: _549  and  _550
REMARK  230  A    between atoms: _549  and  _552
REMARK  231  A    between atoms: _555  and  _557
REMARK  232  A    between atoms: _557  and  _558
REMARK  233  A    between atoms: _560  and  _562
REMARK  234  A    between atoms: _562  and  _563
REMARK  235  A    between atoms: _562  and  _565
REMARK  236  A    between atoms: _565  and  _566
REMARK  237  A    between atoms: _572  and  _574
REMARK  238  A    between atoms: _574  and  _575
REMARK  239  A    between atoms: _574  and  _577
REMARK  240  A    between atoms: _577  and  _578
REMARK  241  A    between atoms: _584  and  _586
REMARK  242  A    between atoms: _586  and  _587
REMARK  243  A    between atoms: _589  and  _591
REMARK  244  A    between atoms: _591  and  _592
REMARK  245  A    between atoms: _594  and  _596
REMARK  246  A    between atoms: _596  and  _597
REMARK  247  A    between atoms: _596  and  _599
REMARK  248  A    between atoms: _599  and  _600
REMARK  249  A    between atoms: _600  and  _601
REMARK  250  A    between atoms: _606  and  _608
REMARK  251  A    between atoms: _608  and  _609
REMARK  252  A    between atoms: _608  and  _611
REMARK  253  A    between atoms: _611  and  _612
REMARK  254  A    between atoms: _614  and  _616
REMARK  255  A    between atoms: _616  and  _617
REMARK  256  A    between atoms: _619  and  _621
REMARK  257  A    between atoms: _621  and  _622
REMARK  258  A    between atoms: _621  and  _624
REMARK  259  A    between atoms: _624  and  _625
REMARK  260  A    between atoms: _628  and  _630
REMARK  261  A    between atoms: _630  and  _631
REMARK  262  A    between atoms: _633  and  _635
REMARK  263  A    between atoms: _635  and  _636
REMARK  264  A    between atoms: _635  and  _638
REMARK  265  A    between atoms: _638  and  _639
REMARK  266  A    between atoms: _642  and  _644
REMARK  267  A    between atoms: _644  and  _645
REMARK  268  A    between atoms: _644  and  _647
REMARK  269  A    between atoms: _647  and  _648
REMARK  270  A    between atoms: _653  and  _655
REMARK  271  A    between atoms: _655  and  _656
REMARK  272  A    between atoms: _655  and  _658
REMARK  273  A    between atoms: _658  and  _659
REMARK  274  A    between atoms: _662  and  _664
REMARK  275  A    between atoms: _664  and  _665
REMARK  276  A    between atoms: _664  and  _667
REMARK  277  A    between atoms: _667  and  _668
REMARK  278  A    between atoms: _674  and  _676
REMARK  279  A    between atoms: _676  and  _677
REMARK  280  A    between atoms: _679  and  _681
REMARK  281  A    between atoms: _681  and  _682
REMARK  282  A    between atoms: _681  and  _684
REMARK  283  A    between atoms: _684  and  _685
REMARK                            x       y       z     vdW  Elec       q    Type
REMARK                         _______ _______ _______ _____ _____    ______ ____
ROOT
ATOM      1  O   HOH     1      -3.395  24.784  18.468  0.00  0.00    +0.000 OA
ENDROOT
TORSDOF 0
REMARK  Name = ../refined-set-2016/5er2/5er2_pocket.pdb
REMARK  283 active torsions:
REMARK  status: ('A' for Active; 'I' for Inactive)
REMARK    1  A    between atoms: _1  and  _3
REMARK    2  A    between atoms: _3  and  _4
REMARK    3  A    between atoms: _3  and  _6
REMARK    4  A    between atoms: _6  and  _7
REMARK    5  A    between atoms: _10  and  _12
REMARK    6  A    between atoms: _12  and  _13
REMARK    7  A    between atoms: _12  and  _15
REMARK    8  A    between atoms: _15  and  _16
REMARK    9  A    between atoms: _19  and  _21
REMARK   10  A    between atoms: _21  and  _22
REMARK   11  A    between atoms: _21  and  _24
REMARK   12  A    between atoms: _24  and  _25
REMARK   13  A    between atoms: _28  and  _30
REMARK   14  A    between atoms: _30  and  _31
REMARK   15  A    between atoms: _30  and  _33
REMARK   16  A    between atoms: _33  and  _34
REMARK   17  A    between atoms: _37  and  _39
REMARK   18  A    between atoms: _39  and  _40
REMARK   19  A    between atoms: _39  and  _42
REMARK   20  A    between atoms: _42  and  _43
REMARK   21  A    between atoms: _46  and  _48
REMARK   22  A    between atoms: _48  and  _49
REMARK   23  A    between atoms: _52  and  _54
REMARK   24  A    between atoms: _54  and  _55
REMARK   25  A    between atoms: _54  and  _57
REMARK   26  A    between atoms: _57  and  _58
REMARK   27  A    between atoms: _63  and  _64
REMARK   28  A    between atoms: _66  and  _68
REMARK   29  A    between atoms: _68  and  _69
REMARK   30  A    between atoms: _68  and  _71
REMARK   31  A    between atoms: _71  and  _72
REMARK   32  A    between atoms: _75  and  _77
REMARK   33  A    between atoms: _77  and  _78
REMARK   34  A    between atoms: _77  and  _80
REMARK   35  A    between atoms: _80  and  _81
REMARK   36  A    between atoms: _87  and  _89
REMARK   37  A    between atoms: _89  and  _90
REMARK   38  A    between atoms: _89  and  _92
REMARK   39  A    between atoms: _92  and  _93
REMARK   40  A    between atoms: _96  and  _98
REMARK   41  A    between atoms: _98  and  _99
REMARK   42  A    between atoms: _98  and  _101
REMARK   43  A    between atoms: _101  and  _102
REMARK   44  A    between atoms: _105  and  _107
REMARK   45  A    between atoms: _107  and  _108
REMARK   46  A    between atoms: _110  and  _112
REMARK   47  A    between atoms: _112  and  _113
REMARK   48  A    between atoms: _112  and  _115
REMARK   49  A    between atoms: _115  and  _116
REMARK   50  A    between atoms: _118  and  _120
REMARK   51  A    between atoms: _120  and  _121
REMARK   52  A    between atoms: _120  and  _123
REMARK   53  A    between atoms: _123  and  _124
REMARK   54  A    between atoms: _126  and  _128
REMARK   55  A    between atoms: _128  and  _129
REMARK   56  A    between atoms: _128  and  _131
REMARK   57  A    between atoms: _131  and  _132
REMARK   58  A    between atoms: _135  and  _137
REMARK   59  A    between atoms: _137  and  _138
REMARK   60  A    between atoms: _137  and  _140
REMARK   61  A    between atoms: _140  and  _141
REMARK   62  A    between atoms: _151  and  _153
REMARK   63  A    between atoms: _153  and  _154
REMARK   64  A    between atoms: _153  and  _156
REMARK   65  A    between atoms: _156  and  _157
REMARK   66  A    between atoms: _159  and  _161
REMARK   67  A    between atoms: _161  and  _162
REMARK   68  A    between atoms: _161  and  _164
REMARK   69  A    between atoms: _164  and  _165
REMARK   70  A    between atoms: _168  and  _170
REMARK   71  A    between atoms: _170  and  _171
REMARK   72  A    between atoms: _170  and  _173
REMARK   73  A    between atoms: _173  and  _174
REMARK   74  A    between atoms: _176  and  _178
REMARK   75  A    between atoms: _178  and  _179
REMARK   76  A    between atoms: _178  and  _181
REMARK   77  A    between atoms: _181  and  _182
REMARK   78  A    between atoms: _187  and  _188
REMARK   79  A    between atoms: _190  and  _192
REMARK   80  A    between atoms: _192  and  _193
REMARK   81  A    between atoms: _195  and  _197
REMARK   82  A    between atoms: _197  and  _198
REMARK   83  A    between atoms: _197  and  _200
REMARK   84  A    between atoms: _200  and  _201
REMARK   85  A    between atoms: _204  and  _206
REMARK   86  A    between atoms: _206  and  _207
REMARK   87  A    between atoms: _209  and  _211
REMARK   88  A    between atoms: _211  and  _212
REMARK   89  A    between atoms: _211  and  _214
REMARK   90  A    between atoms: _214  and  _215
REMARK   91  A    between atoms: _217  and  _219
REMARK   92  A    between atoms: _219  and  _220
REMARK   93  A    between atoms: _219  and  _222
REMARK   94  A    between atoms: _222  and  _223
REMARK   95  A    between atoms: _225  and  _227
REMARK   96  A    between atoms: _227  and  _228
REMARK   97  A    between atoms: _227  and  _230
REMARK   98  A    between atoms: _230  and  _231
REMARK   99  A    between atoms: _233  and  _235
REMARK  100  A    between atoms: _235  and  _236
REMARK  101  A    between atoms: _235  and  _238
REMARK  102  A    between atoms: _238  and  _239
REMARK  103  A    between atoms: _241  and  _243
REMARK  104  A    between atoms: _243  and  _244
REMARK  105  A    between atoms: _243  and  _246
REMARK  106  A    between atoms: _246  and  _247
REMARK  107  A    between atoms: _253  and  _255
REMARK  108  A    between atoms: _255  and  _256
REMARK  109  A    between atoms: _255  and  _258
REMARK  110  A    between atoms: _258  and  _259
REMARK  111  A    between atoms: _259  and  _260
REMARK  112  A    between atoms: _263  and  _265
REMARK  113  A    between atoms: _265  and  _266
REMARK  114  A    between atoms: _265  and  _268
REMARK  115  A    between atoms: _268  and  _269
REMARK  116  A    between atoms: _272  and  _274
REMARK  117  A    between atoms: _274  and  _275
REMARK  118  A    between atoms: _274  and  _277
REMARK  119  A    between atoms: _277  and  _278
REMARK  120  A    between atoms: _280  and  _282
REMARK  121  A    between atoms: _282  and  _283
REMARK  122  A    between atoms: _282  and  _285
REMARK  123  A    between atoms: _285  and  _286
REMARK  124  A    between atoms: _289  and  _291
REMARK  125  A    between atoms: _291  and  _292
REMARK  126  A    between atoms: _291  and  _294
REMARK  127  A    between atoms: _294  and  _295
REMARK  128  A    between atoms: _298  and  _300
REMARK  129  A    between atoms: _300  and  _301
REMARK  130  A    between atoms: _303  and  _305
REMARK  131  A    between atoms: _305  and  _306
REMARK  132  A    between atoms: _305  and  _308
REMARK  133  A    between atoms: _308  and  _309
REMARK  134  A    between atoms: _312  and  _314
REMARK  135  A    between atoms: _314  and  _315
REMARK  136  A    between atoms: _314  and  _317
REMARK  137  A    between atoms: _317  and  _318
REMARK  138  A    between atoms: _321  and  _323
REMARK  139  A    between atoms: _323  and  _324
REMARK  140  A    between atoms: _323  and  _326
REMARK  141  A    between atoms: _326  and  _327
REMARK  142  A    between atoms: _330  and  _332
REMARK  143  A    between atoms: _332  and  _333
REMARK  144  A    between atoms: _336  and  _338
REMARK  145  A    between atoms: _338  and  _339
REMARK  146  A    between atoms: _338  and  _341
REMARK  147  A    between atoms: _341  and  _342
REMARK  148  A    between atoms: _348  and  _350
REMARK  149  A    between atoms: _350  and  _351
REMARK  150  A    between atoms: _350  and  _353
REMARK  151  A    between atoms: _353  and  _354
REMARK  152  A    between atoms: _356  and  _358
REMARK  153  A    between atoms: _358  and  _359
REMARK  154  A    between atoms: _358  and  _361
REMARK  155  A    between atoms: _361  and  _362
REMARK  156  A    between atoms: _365  and  _367
REMARK  157  A    between atoms: _367  and  _368
REMARK  158  A    between atoms: _367  and  _370
REMARK  159  A    between atoms: _370  and  _371
REMARK  160  A    between atoms: _374  and  _376
REMARK  161  A    between atoms: _376  and  _377
REMARK  162  A    between atoms: _376  and  _379
REMARK  163  A    between atoms: _379  and  _380
REMARK  164  A    between atoms: _385  and  _387
REMARK  165  A    between atoms: _387  and  _388
REMARK  166  A    between atoms: _387  and  _390
REMARK  167  A    between atoms: _390  and  _391
REMARK  168  A    between atoms: _394  and  _396
REMARK  169  A    between atoms: _396  and  _397
REMARK  170  A    between atoms: _396  and  _399
REMARK  171  A    between atoms: _402  and  _404
REMARK  172  A    between atoms: _404  and  _405
REMARK  173  A    between atoms: _404  and  _407
REMARK  174  A    between atoms: _407  and  _408
REMARK  175  A    between atoms: _408  and  _409
REMARK  176  A    between atoms: _414  and  _416
REMARK  177  A    between atoms: _416  and  _417
REMARK  178  A    between atoms: _416  and  _419
REMARK  179  A    between atoms: _419  and  _420
REMARK  180  A    between atoms: _420  and  _421
REMARK  181  A    between atoms: _426  and  _428
REMARK  182  A    between atoms: _428  and  _429
REMARK  183  A    between atoms: _428  and  _431
REMARK  184  A    between atoms: _431  and  _432
REMARK  185  A    between atoms: _438  and  _440
REMARK  186  A    between atoms: _440  and  _441
REMARK  187  A    between atoms: _440  and  _443
REMARK  188  A    between atoms: _443  and  _444
REMARK  189  A    between atoms: _454  and  _456
REMARK  190  A    between atoms: _456  and  _457
REMARK  191  A    between atoms: _459  and  _461
REMARK  192  A    between atoms: _461  and  _462
REMARK  193  A    between atoms: _461  and  _464
REMARK  194  A    between atoms: _464  and  _465
REMARK  195  A    between atoms: _468  and  _470
REMARK  196  A    between atoms: _470  and  _471
REMARK  197  A    between atoms: _474  and  _476
REMARK  198  A    between atoms: _476  and  _477
REMARK  199  A    between atoms: _476  and  _479
REMARK  200  A    between atoms: _479  and  _480
REMARK  201  A    between atoms: _483  and  _485
REMARK  202  A    between atoms: _485  and  _486
REMARK  203  A    between atoms: _485  and  _488
REMARK  204  A    between atoms: _488  and  _489
REMARK  205  A    between atoms: _492  and  _494
REMARK  206  A    between atoms: _494  and  _495
REMARK  207  A    between atoms: _497  and  _499
REMARK  208  A    between atoms: _499  and  _500
REMARK  209  A    between atoms: _499  and  _502
REMARK  210  A    between atoms: _502  and  _503
REMARK  211  A    between atoms: _506  and  _508
REMARK  212  A    between atoms: _508  and  _509
REMARK  213  A    between atoms: _508  and  _511
REMARK  214  A    between atoms: _511  and  _512
REMARK  215  A    between atoms: _515  and  _517
REMARK  216  A    between atoms: _517  and  _518
REMARK  217  A    between atoms: _517  and  _520
REMARK  218  A    between atoms: _520  and  _521
REMARK  219  A    between atoms: _524  and  _526
REMARK  220  A    between atoms: _526  and  _527
REMARK  221  A    between atoms: _526  and  _529
REMARK  222  A    between atoms: _529  and  _530
REMARK  223  A    between atoms: _533  and  _535
REMARK  224  A    between atoms: _535  and  _536
REMARK  225  A    between atoms: _535  and  _538
REMARK  226  A    between atoms: _538  and  _539
REMARK  227  A    between atoms: _544  and  _545
REMARK  228  A    between atoms: _547  and  _549
REMARK  229  A    between atoms: _549  and  _550
REMARK  230  A    between atoms: _549  and  _552
REMARK  231  A    between atoms: _555  and  _557
REMARK  232  A    between atoms: _557  and  _558
REMARK  233  A    between atoms: _560  and  _562
REMARK  234  A    between atoms: _562  and  _563
REMARK  235  A    between atoms: _562  and  _565
REMARK  236  A    between atoms: _565  and  _566
REMARK  237  A    between atoms: _572  and  _574
REMARK  238  A    between atoms: _574  and  _575
REMARK  239  A    between atoms: _574  and  _577
REMARK  240  A    between atoms: _577  and  _578
REMARK  241  A    between atoms: _584  and  _586
REMARK  242  A    between atoms: _586  and  _587
REMARK  243  A    between atoms: _589  and  _591
REMARK  244  A    between atoms: _591  and  _592
REMARK  245  A    between atoms: _594  and  _596
REMARK  246  A    between atoms: _596  and  _597
REMARK  247  A    between atoms: _596  and  _599
REMARK  248  A    between atoms: _599  and  _600
REMARK  249  A    between atoms: _600  and  _601
REMARK  250  A    between atoms: _606  and  _608
REMARK  251  A    between atoms: _608  and  _609
REMARK  252  A    between atoms: _608  and  _611
REMARK  253  A    between atoms: _611  and  _612
REMARK  254  A    between atoms: _614  and  _616
REMARK  255  A    between atoms: _616  and  _617
REMARK  256  A    between atoms: _619  and  _621
REMARK  257  A    between atoms: _621  and  _622
REMARK  258  A    between atoms: _621  and  _624
REMARK  259  A    between atoms: _624  and  _625
REMARK  260  A    between atoms: _628  and  _630
REMARK  261  A    between atoms: _630  and  _631
REMARK  262  A    between atoms: _633  and  _635
REMARK  263  A    between atoms: _635  and  _636
REMARK  264  A    between atoms: _635  and  _638
REMARK  265  A    between atoms: _638  and  _639
REMARK  266  A    between atoms: _642  and  _644
REMARK  267  A    between atoms: _644  and  _645
REMARK  268  A    between atoms: _644  and  _647
REMARK  269  A    between atoms: _647  and  _648
REMARK  270  A    between atoms: _653  and  _655
REMARK  271  A    between atoms: _655  and  _656
REMARK  272  A    between atoms: _655  and  _658
REMARK  273  A    between atoms: _658  and  _659
REMARK  274  A    between atoms: _662  and  _664
REMARK  275  A    between atoms: _664  and  _665
REMARK  276  A    between atoms: _664  and  _667
REMARK  277  A    between atoms: _667  and  _668
REMARK  278  A    between atoms: _674  and  _676
REMARK  279  A    between atoms: _676  and  _677
REMARK  280  A    between atoms: _679  and  _681
REMARK  281  A    between atoms: _681  and  _682
REMARK  282  A    between atoms: _681  and  _684
REMARK  283  A    between atoms: _684  and  _685
REMARK                            x       y       z     vdW  Elec       q    Type
REMARK                         _______ _______ _______ _____ _____    ______ ____
ROOT
ATOM      1  O   HOH     1      -2.744  26.995  20.732  0.00  0.00    +0.000 OA
ENDROOT
TORSDOF 0
REMARK  Name = ../refined-set-2016/5er2/5er2_pocket.pdb
REMARK  283 active torsions:
REMARK  status: ('A' for Active; 'I' for Inactive)
REMARK    1  A    between atoms: _1  and  _3
REMARK    2  A    between atoms: _3  and  _4
REMARK    3  A    between atoms: _3  and  _6
REMARK    4  A    between atoms: _6  and  _7
REMARK    5  A    between atoms: _10  and  _12
REMARK    6  A    between atoms: _12  and  _13
REMARK    7  A    between atoms: _12  and  _15
REMARK    8  A    between atoms: _15  and  _16
REMARK    9  A    between atoms: _19  and  _21
REMARK   10  A    between atoms: _21  and  _22
REMARK   11  A    between atoms: _21  and  _24
REMARK   12  A    between atoms: _24  and  _25
REMARK   13  A    between atoms: _28  and  _30
REMARK   14  A    between atoms: _30  and  _31
REMARK   15  A    between atoms: _30  and  _33
REMARK   16  A    between atoms: _33  and  _34
REMARK   17  A    between atoms: _37  and  _39
REMARK   18  A    between atoms: _39  and  _40
REMARK   19  A    between atoms: _39  and  _42
REMARK   20  A    between atoms: _42  and  _43
REMARK   21  A    between atoms: _46  and  _48
REMARK   22  A    between atoms: _48  and  _49
REMARK   23  A    between atoms: _52  and  _54
REMARK   24  A    between atoms: _54  and  _55
REMARK   25  A    between atoms: _54  and  _57
REMARK   26  A    between atoms: _57  and  _58
REMARK   27  A    between atoms: _63  and  _64
REMARK   28  A    between atoms: _66  and  _68
REMARK   29  A    between atoms: _68  and  _69
REMARK   30  A    between atoms: _68  and  _71
REMARK   31  A    between atoms: _71  and  _72
REMARK   32  A    between atoms: _75  and  _77
REMARK   33  A    between atoms: _77  and  _78
REMARK   34  A    between atoms: _77  and  _80
REMARK   35  A    between atoms: _80  and  _81
REMARK   36  A    between atoms: _87  and  _89
REMARK   37  A    between atoms: _89  and  _90
REMARK   38  A    between atoms: _89  and  _92
REMARK   39  A    between atoms: _92  and  _93
REMARK   40  A    between atoms: _96  and  _98
REMARK   41  A    between atoms: _98  and  _99
REMARK   42  A    between atoms: _98  and  _101
REMARK   43  A    between atoms: _101  and  _102
REMARK   44  A    between atoms: _105  and  _107
REMARK   45  A    between atoms: _107  and  _108
REMARK   46  A    between atoms: _110  and  _112
REMARK   47  A    between atoms: _112  and  _113
REMARK   48  A    between atoms: _112  and  _115
REMARK   49  A    between atoms: _115  and  _116
REMARK   50  A    between atoms: _118  and  _120
REMARK   51  A    between atoms: _120  and  _121
REMARK   52  A    between atoms: _120  and  _123
REMARK   53  A    between atoms: _123  and  _124
REMARK   54  A    between atoms: _126  and  _128
REMARK   55  A    between atoms: _128  and  _129
REMARK   56  A    between atoms: _128  and  _131
REMARK   57  A    between atoms: _131  and  _132
REMARK   58  A    between atoms: _135  and  _137
REMARK   59  A    between atoms: _137  and  _138
REMARK   60  A    between atoms: _137  and  _140
REMARK   61  A    between atoms: _140  and  _141
REMARK   62  A    between atoms: _151  and  _153
REMARK   63  A    between atoms: _153  and  _154
REMARK   64  A    between atoms: _153  and  _156
REMARK   65  A    between atoms: _156  and  _157
REMARK   66  A    between atoms: _159  and  _161
REMARK   67  A    between atoms: _161  and  _162
REMARK   68  A    between atoms: _161  and  _164
REMARK   69  A    between atoms: _164  and  _165
REMARK   70  A    between atoms: _168  and  _170
REMARK   71  A    between atoms: _170  and  _171
REMARK   72  A    between atoms: _170  and  _173
REMARK   73  A    between atoms: _173  and  _174
REMARK   74  A    between atoms: _176  and  _178
REMARK   75  A    between atoms: _178  and  _179
REMARK   76  A    between atoms: _178  and  _181
REMARK   77  A    between atoms: _181  and  _182
REMARK   78  A    between atoms: _187  and  _188
REMARK   79  A    between atoms: _190  and  _192
REMARK   80  A    between atoms: _192  and  _193
REMARK   81  A    between atoms: _195  and  _197
REMARK   82  A    between atoms: _197  and  _198
REMARK   83  A    between atoms: _197  and  _200
REMARK   84  A    between atoms: _200  and  _201
REMARK   85  A    between atoms: _204  and  _206
REMARK   86  A    between atoms: _206  and  _207
REMARK   87  A    between atoms: _209  and  _211
REMARK   88  A    between atoms: _211  and  _212
REMARK   89  A    between atoms: _211  and  _214
REMARK   90  A    between atoms: _214  and  _215
REMARK   91  A    between atoms: _217  and  _219
REMARK   92  A    between atoms: _219  and  _220
REMARK   93  A    between atoms: _219  and  _222
REMARK   94  A    between atoms: _222  and  _223
REMARK   95  A    between atoms: _225  and  _227
REMARK   96  A    between atoms: _227  and  _228
REMARK   97  A    between atoms: _227  and  _230
REMARK   98  A    between atoms: _230  and  _231
REMARK   99  A    between atoms: _233  and  _235
REMARK  100  A    between atoms: _235  and  _236
REMARK  101  A    between atoms: _235  and  _238
REMARK  102  A    between atoms: _238  and  _239
REMARK  103  A    between atoms: _241  and  _243
REMARK  104  A    between atoms: _243  and  _244
REMARK  105  A    between atoms: _243  and  _246
REMARK  106  A    between atoms: _246  and  _247
REMARK  107  A    between atoms: _253  and  _255
REMARK  108  A    between atoms: _255  and  _256
REMARK  109  A    between atoms: _255  and  _258
REMARK  110  A    between atoms: _258  and  _259
REMARK  111  A    between atoms: _259  and  _260
REMARK  112  A    between atoms: _263  and  _265
REMARK  113  A    between atoms: _265  and  _266
REMARK  114  A    between atoms: _265  and  _268
REMARK  115  A    between atoms: _268  and  _269
REMARK  116  A    between atoms: _272  and  _274
REMARK  117  A    between atoms: _274  and  _275
REMARK  118  A    between atoms: _274  and  _277
REMARK  119  A    between atoms: _277  and  _278
REMARK  120  A    between atoms: _280  and  _282
REMARK  121  A    between atoms: _282  and  _283
REMARK  122  A    between atoms: _282  and  _285
REMARK  123  A    between atoms: _285  and  _286
REMARK  124  A    between atoms: _289  and  _291
REMARK  125  A    between atoms: _291  and  _292
REMARK  126  A    between atoms: _291  and  _294
REMARK  127  A    between atoms: _294  and  _295
REMARK  128  A    between atoms: _298  and  _300
REMARK  129  A    between atoms: _300  and  _301
REMARK  130  A    between atoms: _303  and  _305
REMARK  131  A    between atoms: _305  and  _306
REMARK  132  A    between atoms: _305  and  _308
REMARK  133  A    between atoms: _308  and  _309
REMARK  134  A    between atoms: _312  and  _314
REMARK  135  A    between atoms: _314  and  _315
REMARK  136  A    between atoms: _314  and  _317
REMARK  137  A    between atoms: _317  and  _318
REMARK  138  A    between atoms: _321  and  _323
REMARK  139  A    between atoms: _323  and  _324
REMARK  140  A    between atoms: _323  and  _326
REMARK  141  A    between atoms: _326  and  _327
REMARK  142  A    between atoms: _330  and  _332
REMARK  143  A    between atoms: _332  and  _333
REMARK  144  A    between atoms: _336  and  _338
REMARK  145  A    between atoms: _338  and  _339
REMARK  146  A    between atoms: _338  and  _341
REMARK  147  A    between atoms: _341  and  _342
REMARK  148  A    between atoms: _348  and  _350
REMARK  149  A    between atoms: _350  and  _351
REMARK  150  A    between atoms: _350  and  _353
REMARK  151  A    between atoms: _353  and  _354
REMARK  152  A    between atoms: _356  and  _358
REMARK  153  A    between atoms: _358  and  _359
REMARK  154  A    between atoms: _358  and  _361
REMARK  155  A    between atoms: _361  and  _362
REMARK  156  A    between atoms: _365  and  _367
REMARK  157  A    between atoms: _367  and  _368
REMARK  158  A    between atoms: _367  and  _370
REMARK  159  A    between atoms: _370  and  _371
REMARK  160  A    between atoms: _374  and  _376
REMARK  161  A    between atoms: _376  and  _377
REMARK  162  A    between atoms: _376  and  _379
REMARK  163  A    between atoms: _379  and  _380
REMARK  164  A    between atoms: _385  and  _387
REMARK  165  A    between atoms: _387  and  _388
REMARK  166  A    between atoms: _387  and  _390
REMARK  167  A    between atoms: _390  and  _391
REMARK  168  A    between atoms: _394  and  _396
REMARK  169  A    between atoms: _396  and  _397
REMARK  170  A    between atoms: _396  and  _399
REMARK  171  A    between atoms: _402  and  _404
REMARK  172  A    between atoms: _404  and  _405
REMARK  173  A    between atoms: _404  and  _407
REMARK  174  A    between atoms: _407  and  _408
REMARK  175  A    between atoms: _408  and  _409
REMARK  176  A    between atoms: _414  and  _416
REMARK  177  A    between atoms: _416  and  _417
REMARK  178  A    between atoms: _416  and  _419
REMARK  179  A    between atoms: _419  and  _420
REMARK  180  A    between atoms: _420  and  _421
REMARK  181  A    between atoms: _426  and  _428
REMARK  182  A    between atoms: _428  and  _429
REMARK  183  A    between atoms: _428  and  _431
REMARK  184  A    between atoms: _431  and  _432
REMARK  185  A    between atoms: _438  and  _440
REMARK  186  A    between atoms: _440  and  _441
REMARK  187  A    between atoms: _440  and  _443
REMARK  188  A    between atoms: _443  and  _444
REMARK  189  A    between atoms: _454  and  _456
REMARK  190  A    between atoms: _456  and  _457
REMARK  191  A    between atoms: _459  and  _461
REMARK  192  A    between atoms: _461  and  _462
REMARK  193  A    between atoms: _461  and  _464
REMARK  194  A    between atoms: _464  and  _465
REMARK  195  A    between atoms: _468  and  _470
REMARK  196  A    between atoms: _470  and  _471
REMARK  197  A    between atoms: _474  and  _476
REMARK  198  A    between atoms: _476  and  _477
REMARK  199  A    between atoms: _476  and  _479
REMARK  200  A    between atoms: _479  and  _480
REMARK  201  A    between atoms: _483  and  _485
REMARK  202  A    between atoms: _485  and  _486
REMARK  203  A    between atoms: _485  and  _488
REMARK  204  A    between atoms: _488  and  _489
REMARK  205  A    between atoms: _492  and  _494
REMARK  206  A    between atoms: _494  and  _495
REMARK  207  A    between atoms: _497  and  _499
REMARK  208  A    between atoms: _499  and  _500
REMARK  209  A    between atoms: _499  and  _502
REMARK  210  A    between atoms: _502  and  _503
REMARK  211  A    between atoms: _506  and  _508
REMARK  212  A    between atoms: _508  and  _509
REMARK  213  A    between atoms: _508  and  _511
REMARK  214  A    between atoms: _511  and  _512
REMARK  215  A    between atoms: _515  and  _517
REMARK  216  A    between atoms: _517  and  _518
REMARK  217  A    between atoms: _517  and  _520
REMARK  218  A    between atoms: _520  and  _521
REMARK  219  A    between atoms: _524  and  _526
REMARK  220  A    between atoms: _526  and  _527
REMARK  221  A    between atoms: _526  and  _529
REMARK  222  A    between atoms: _529  and  _530
REMARK  223  A    between atoms: _533  and  _535
REMARK  224  A    between atoms: _535  and  _536
REMARK  225  A    between atoms: _535  and  _538
REMARK  226  A    between atoms: _538  and  _539
REMARK  227  A    between atoms: _544  and  _545
REMARK  228  A    between atoms: _547  and  _549
REMARK  229  A    between atoms: _549  and  _550
REMARK  230  A    between atoms: _549  and  _552
REMARK  231  A    between atoms: _555  and  _557
REMARK  232  A    between atoms: _557  and  _558
REMARK  233  A    between atoms: _560  and  _562
REMARK  234  A    between atoms: _562  and  _563
REMARK  235  A    between atoms: _562  and  _565
REMARK  236  A    between atoms: _565  and  _566
REMARK  237  A    between atoms: _572  and  _574
REMARK  238  A    between atoms: _574  and  _575
REMARK  239  A    between atoms: _574  and  _577
REMARK  240  A    between atoms: _577  and  _578
REMARK  241  A    between atoms: _584  and  _586
REMARK  242  A    between atoms: _586  and  _587
REMARK  243  A    between atoms: _589  and  _591
REMARK  244  A    between atoms: _591  and  _592
REMARK  245  A    between atoms: _594  and  _596
REMARK  246  A    between atoms: _596  and  _597
REMARK  247  A    between atoms: _596  and  _599
REMARK  248  A    between atoms: _599  and  _600
REMARK  249  A    between atoms: _600  and  _601
REMARK  250  A    between atoms: _606  and  _608
REMARK  251  A    between atoms: _608  and  _609
REMARK  252  A    between atoms: _608  and  _611
REMARK  253  A    between atoms: _611  and  _612
REMARK  254  A    between atoms: _614  and  _616
REMARK  255  A    between atoms: _616  and  _617
REMARK  256  A    between atoms: _619  and  _621
REMARK  257  A    between atoms: _621  and  _622
REMARK  258  A    between atoms: _621  and  _624
REMARK  259  A    between atoms: _624  and  _625
REMARK  260  A    between atoms: _628  and  _630
REMARK  261  A    between atoms: _630  and  _631
REMARK  262  A    between atoms: _633  and  _635
REMARK  263  A    between atoms: _635  and  _636
REMARK  264  A    between atoms: _635  and  _638
REMARK  265  A    between atoms: _638  and  _639
REMARK  266  A    between atoms: _642  and  _644
REMARK  267  A    between atoms: _644  and  _645
REMARK  268  A    between atoms: _644  and  _647
REMARK  269  A    between atoms: _647  and  _648
REMARK  270  A    between atoms: _653  and  _655
REMARK  271  A    between atoms: _655  and  _656
REMARK  272  A    between atoms: _655  and  _658
REMARK  273  A    between atoms: _658  and  _659
REMARK  274  A    between atoms: _662  and  _664
REMARK  275  A    between atoms: _664  and  _665
REMARK  276  A    between atoms: _664  and  _667
REMARK  277  A    between atoms: _667  and  _668
REMARK  278  A    between atoms: _674  and  _676
REMARK  279  A    between atoms: _676  and  _677
REMARK  280  A    between atoms: _679  and  _681
REMARK  281  A    between atoms: _681  and  _682
REMARK  282  A    between atoms: _681  and  _684
REMARK  283  A    between atoms: _684  and  _685
REMARK                            x       y       z     vdW  Elec       q    Type
REMARK                         _______ _______ _______ _____ _____    ______ ____
ROOT
ATOM      1  O   HOH     1      -5.843  23.970  18.271  0.00  0.00    +0.000 OA
ENDROOT
TORSDOF 0
REMARK  Name = ../refined-set-2016/5er2/5er2_pocket.pdb
REMARK  283 active torsions:
REMARK  status: ('A' for Active; 'I' for Inactive)
REMARK    1  A    between atoms: _1  and  _3
REMARK    2  A    between atoms: _3  and  _4
REMARK    3  A    between atoms: _3  and  _6
REMARK    4  A    between atoms: _6  and  _7
REMARK    5  A    between atoms: _10  and  _12
REMARK    6  A    between atoms: _12  and  _13
REMARK    7  A    between atoms: _12  and  _15
REMARK    8  A    between atoms: _15  and  _16
REMARK    9  A    between atoms: _19  and  _21
REMARK   10  A    between atoms: _21  and  _22
REMARK   11  A    between atoms: _21  and  _24
REMARK   12  A    between atoms: _24  and  _25
REMARK   13  A    between atoms: _28  and  _30
REMARK   14  A    between atoms: _30  and  _31
REMARK   15  A    between atoms: _30  and  _33
REMARK   16  A    between atoms: _33  and  _34
REMARK   17  A    between atoms: _37  and  _39
REMARK   18  A    between atoms: _39  and  _40
REMARK   19  A    between atoms: _39  and  _42
REMARK   20  A    between atoms: _42  and  _43
REMARK   21  A    between atoms: _46  and  _48
REMARK   22  A    between atoms: _48  and  _49
REMARK   23  A    between atoms: _52  and  _54
REMARK   24  A    between atoms: _54  and  _55
REMARK   25  A    between atoms: _54  and  _57
REMARK   26  A    between atoms: _57  and  _58
REMARK   27  A    between atoms: _63  and  _64
REMARK   28  A    between atoms: _66  and  _68
REMARK   29  A    between atoms: _68  and  _69
REMARK   30  A    between atoms: _68  and  _71
REMARK   31  A    between atoms: _71  and  _72
REMARK   32  A    between atoms: _75  and  _77
REMARK   33  A    between atoms: _77  and  _78
REMARK   34  A    between atoms: _77  and  _80
REMARK   35  A    between atoms: _80  and  _81
REMARK   36  A    between atoms: _87  and  _89
REMARK   37  A    between atoms: _89  and  _90
REMARK   38  A    between atoms: _89  and  _92
REMARK   39  A    between atoms: _92  and  _93
REMARK   40  A    between atoms: _96  and  _98
REMARK   41  A    between atoms: _98  and  _99
REMARK   42  A    between atoms: _98  and  _101
REMARK   43  A    between atoms: _101  and  _102
REMARK   44  A    between atoms: _105  and  _107
REMARK   45  A    between atoms: _107  and  _108
REMARK   46  A    between atoms: _110  and  _112
REMARK   47  A    between atoms: _112  and  _113
REMARK   48  A    between atoms: _112  and  _115
REMARK   49  A    between atoms: _115  and  _116
REMARK   50  A    between atoms: _118  and  _120
REMARK   51  A    between atoms: _120  and  _121
REMARK   52  A    between atoms: _120  and  _123
REMARK   53  A    between atoms: _123  and  _124
REMARK   54  A    between atoms: _126  and  _128
REMARK   55  A    between atoms: _128  and  _129
REMARK   56  A    between atoms: _128  and  _131
REMARK   57  A    between atoms: _131  and  _132
REMARK   58  A    between atoms: _135  and  _137
REMARK   59  A    between atoms: _137  and  _138
REMARK   60  A    between atoms: _137  and  _140
REMARK   61  A    between atoms: _140  and  _141
REMARK   62  A    between atoms: _151  and  _153
REMARK   63  A    between atoms: _153  and  _154
REMARK   64  A    between atoms: _153  and  _156
REMARK   65  A    between atoms: _156  and  _157
REMARK   66  A    between atoms: _159  and  _161
REMARK   67  A    between atoms: _161  and  _162
REMARK   68  A    between atoms: _161  and  _164
REMARK   69  A    between atoms: _164  and  _165
REMARK   70  A    between atoms: _168  and  _170
REMARK   71  A    between atoms: _170  and  _171
REMARK   72  A    between atoms: _170  and  _173
REMARK   73  A    between atoms: _173  and  _174
REMARK   74  A    between atoms: _176  and  _178
REMARK   75  A    between atoms: _178  and  _179
REMARK   76  A    between atoms: _178  and  _181
REMARK   77  A    between atoms: _181  and  _182
REMARK   78  A    between atoms: _187  and  _188
REMARK   79  A    between atoms: _190  and  _192
REMARK   80  A    between atoms: _192  and  _193
REMARK   81  A    between atoms: _195  and  _197
REMARK   82  A    between atoms: _197  and  _198
REMARK   83  A    between atoms: _197  and  _200
REMARK   84  A    between atoms: _200  and  _201
REMARK   85  A    between atoms: _204  and  _206
REMARK   86  A    between atoms: _206  and  _207
REMARK   87  A    between atoms: _209  and  _211
REMARK   88  A    between atoms: _211  and  _212
REMARK   89  A    between atoms: _211  and  _214
REMARK   90  A    between atoms: _214  and  _215
REMARK   91  A    between atoms: _217  and  _219
REMARK   92  A    between atoms: _219  and  _220
REMARK   93  A    between atoms: _219  and  _222
REMARK   94  A    between atoms: _222  and  _223
REMARK   95  A    between atoms: _225  and  _227
REMARK   96  A    between atoms: _227  and  _228
REMARK   97  A    between atoms: _227  and  _230
REMARK   98  A    between atoms: _230  and  _231
REMARK   99  A    between atoms: _233  and  _235
REMARK  100  A    between atoms: _235  and  _236
REMARK  101  A    between atoms: _235  and  _238
REMARK  102  A    between atoms: _238  and  _239
REMARK  103  A    between atoms: _241  and  _243
REMARK  104  A    between atoms: _243  and  _244
REMARK  105  A    between atoms: _243  and  _246
REMARK  106  A    between atoms: _246  and  _247
REMARK  107  A    between atoms: _253  and  _255
REMARK  108  A    between atoms: _255  and  _256
REMARK  109  A    between atoms: _255  and  _258
REMARK  110  A    between atoms: _258  and  _259
REMARK  111  A    between atoms: _259  and  _260
REMARK  112  A    between atoms: _263  and  _265
REMARK  113  A    between atoms: _265  and  _266
REMARK  114  A    between atoms: _265  and  _268
REMARK  115  A    between atoms: _268  and  _269
REMARK  116  A    between atoms: _272  and  _274
REMARK  117  A    between atoms: _274  and  _275
REMARK  118  A    between atoms: _274  and  _277
REMARK  119  A    between atoms: _277  and  _278
REMARK  120  A    between atoms: _280  and  _282
REMARK  121  A    between atoms: _282  and  _283
REMARK  122  A    between atoms: _282  and  _285
REMARK  123  A    between atoms: _285  and  _286
REMARK  124  A    between atoms: _289  and  _291
REMARK  125  A    between atoms: _291  and  _292
REMARK  126  A    between atoms: _291  and  _294
REMARK  127  A    between atoms: _294  and  _295
REMARK  128  A    between atoms: _298  and  _300
REMARK  129  A    between atoms: _300  and  _301
REMARK  130  A    between atoms: _303  and  _305
REMARK  131  A    between atoms: _305  and  _306
REMARK  132  A    between atoms: _305  and  _308
REMARK  133  A    between atoms: _308  and  _309
REMARK  134  A    between atoms: _312  and  _314
REMARK  135  A    between atoms: _314  and  _315
REMARK  136  A    between atoms: _314  and  _317
REMARK  137  A    between atoms: _317  and  _318
REMARK  138  A    between atoms: _321  and  _323
REMARK  139  A    between atoms: _323  and  _324
REMARK  140  A    between atoms: _323  and  _326
REMARK  141  A    between atoms: _326  and  _327
REMARK  142  A    between atoms: _330  and  _332
REMARK  143  A    between atoms: _332  and  _333
REMARK  144  A    between atoms: _336  and  _338
REMARK  145  A    between atoms: _338  and  _339
REMARK  146  A    between atoms: _338  and  _341
REMARK  147  A    between atoms: _341  and  _342
REMARK  148  A    between atoms: _348  and  _350
REMARK  149  A    between atoms: _350  and  _351
REMARK  150  A    between atoms: _350  and  _353
REMARK  151  A    between atoms: _353  and  _354
REMARK  152  A    between atoms: _356  and  _358
REMARK  153  A    between atoms: _358  and  _359
REMARK  154  A    between atoms: _358  and  _361
REMARK  155  A    between atoms: _361  and  _362
REMARK  156  A    between atoms: _365  and  _367
REMARK  157  A    between atoms: _367  and  _368
REMARK  158  A    between atoms: _367  and  _370
REMARK  159  A    between atoms: _370  and  _371
REMARK  160  A    between atoms: _374  and  _376
REMARK  161  A    between atoms: _376  and  _377
REMARK  162  A    between atoms: _376  and  _379
REMARK  163  A    between atoms: _379  and  _380
REMARK  164  A    between atoms: _385  and  _387
REMARK  165  A    between atoms: _387  and  _388
REMARK  166  A    between atoms: _387  and  _390
REMARK  167  A    between atoms: _390  and  _391
REMARK  168  A    between atoms: _394  and  _396
REMARK  169  A    between atoms: _396  and  _397
REMARK  170  A    between atoms: _396  and  _399
REMARK  171  A    between atoms: _402  and  _404
REMARK  172  A    between atoms: _404  and  _405
REMARK  173  A    between atoms: _404  and  _407
REMARK  174  A    between atoms: _407  and  _408
REMARK  175  A    between atoms: _408  and  _409
REMARK  176  A    between atoms: _414  and  _416
REMARK  177  A    between atoms: _416  and  _417
REMARK  178  A    between atoms: _416  and  _419
REMARK  179  A    between atoms: _419  and  _420
REMARK  180  A    between atoms: _420  and  _421
REMARK  181  A    between atoms: _426  and  _428
REMARK  182  A    between atoms: _428  and  _429
REMARK  183  A    between atoms: _428  and  _431
REMARK  184  A    between atoms: _431  and  _432
REMARK  185  A    between atoms: _438  and  _440
REMARK  186  A    between atoms: _440  and  _441
REMARK  187  A    between atoms: _440  and  _443
REMARK  188  A    between atoms: _443  and  _444
REMARK  189  A    between atoms: _454  and  _456
REMARK  190  A    between atoms: _456  and  _457
REMARK  191  A    between atoms: _459  and  _461
REMARK  192  A    between atoms: _461  and  _462
REMARK  193  A    between atoms: _461  and  _464
REMARK  194  A    between atoms: _464  and  _465
REMARK  195  A    between atoms: _468  and  _470
REMARK  196  A    between atoms: _470  and  _471
REMARK  197  A    between atoms: _474  and  _476
REMARK  198  A    between atoms: _476  and  _477
REMARK  199  A    between atoms: _476  and  _479
REMARK  200  A    between atoms: _479  and  _480
REMARK  201  A    between atoms: _483  and  _485
REMARK  202  A    between atoms: _485  and  _486
REMARK  203  A    between atoms: _485  and  _488
REMARK  204  A    between atoms: _488  and  _489
REMARK  205  A    between atoms: _492  and  _494
REMARK  206  A    between atoms: _494  and  _495
REMARK  207  A    between atoms: _497  and  _499
REMARK  208  A    between atoms: _499  and  _500
REMARK  209  A    between atoms: _499  and  _502
REMARK  210  A    between atoms: _502  and  _503
REMARK  211  A    between atoms: _506  and  _508
REMARK  212  A    between atoms: _508  and  _509
REMARK  213  A    between atoms: _508  and  _511
REMARK  214  A    between atoms: _511  and  _512
REMARK  215  A    between atoms: _515  and  _517
REMARK  216  A    between atoms: _517  and  _518
REMARK  217  A    between atoms: _517  and  _520
REMARK  218  A    between atoms: _520  and  _521
REMARK  219  A    between atoms: _524  and  _526
REMARK  220  A    between atoms: _526  and  _527
REMARK  221  A    between atoms: _526  and  _529
REMARK  222  A    between atoms: _529  and  _530
REMARK  223  A    between atoms: _533  and  _535
REMARK  224  A    between atoms: _535  and  _536
REMARK  225  A    between atoms: _535  and  _538
REMARK  226  A    between atoms: _538  and  _539
REMARK  227  A    between atoms: _544  and  _545
REMARK  228  A    between atoms: _547  and  _549
REMARK  229  A    between atoms: _549  and  _550
REMARK  230  A    between atoms: _549  and  _552
REMARK  231  A    between atoms: _555  and  _557
REMARK  232  A    between atoms: _557  and  _558
REMARK  233  A    between atoms: _560  and  _562
REMARK  234  A    between atoms: _562  and  _563
REMARK  235  A    between atoms: _562  and  _565
REMARK  236  A    between atoms: _565  and  _566
REMARK  237  A    between atoms: _572  and  _574
REMARK  238  A    between atoms: _574  and  _575
REMARK  239  A    between atoms: _574  and  _577
REMARK  240  A    between atoms: _577  and  _578
REMARK  241  A    between atoms: _584  and  _586
REMARK  242  A    between atoms: _586  and  _587
REMARK  243  A    between atoms: _589  and  _591
REMARK  244  A    between atoms: _591  and  _592
REMARK  245  A    between atoms: _594  and  _596
REMARK  246  A    between atoms: _596  and  _597
REMARK  247  A    between atoms: _596  and  _599
REMARK  248  A    between atoms: _599  and  _600
REMARK  249  A    between atoms: _600  and  _601
REMARK  250  A    between atoms: _606  and  _608
REMARK  251  A    between atoms: _608  and  _609
REMARK  252  A    between atoms: _608  and  _611
REMARK  253  A    between atoms: _611  and  _612
REMARK  254  A    between atoms: _614  and  _616
REMARK  255  A    between atoms: _616  and  _617
REMARK  256  A    between atoms: _619  and  _621
REMARK  257  A    between atoms: _621  and  _622
REMARK  258  A    between atoms: _621  and  _624
REMARK  259  A    between atoms: _624  and  _625
REMARK  260  A    between atoms: _628  and  _630
REMARK  261  A    between atoms: _630  and  _631
REMARK  262  A    between atoms: _633  and  _635
REMARK  263  A    between atoms: _635  and  _636
REMARK  264  A    between atoms: _635  and  _638
REMARK  265  A    between atoms: _638  and  _639
REMARK  266  A    between atoms: _642  and  _644
REMARK  267  A    between atoms: _644  and  _645
REMARK  268  A    between atoms: _644  and  _647
REMARK  269  A    between atoms: _647  and  _648
REMARK  270  A    between atoms: _653  and  _655
REMARK  271  A    between atoms: _655  and  _656
REMARK  272  A    between atoms: _655  and  _658
REMARK  273  A    between atoms: _658  and  _659
REMARK  274  A    between atoms: _662  and  _664
REMARK  275  A    between atoms: _664  and  _665
REMARK  276  A    between atoms: _664  and  _667
REMARK  277  A    between atoms: _667  and  _668
REMARK  278  A    between atoms: _674  and  _676
REMARK  279  A    between atoms: _676  and  _677
REMARK  280  A    between atoms: _679  and  _681
REMARK  281  A    between atoms: _681  and  _682
REMARK  282  A    between atoms: _681  and  _684
REMARK  283  A    between atoms: _684  and  _685
REMARK                            x       y       z     vdW  Elec       q    Type
REMARK                         _______ _______ _______ _____ _____    ______ ____
ROOT
ATOM      1  O   HOH     1       2.367  32.971  23.675  0.00  0.00    +0.000 OA
ENDROOT
TORSDOF 0
REMARK  Name = ../refined-set-2016/5er2/5er2_pocket.pdb
REMARK  283 active torsions:
REMARK  status: ('A' for Active; 'I' for Inactive)
REMARK    1  A    between atoms: _1  and  _3
REMARK    2  A    between atoms: _3  and  _4
REMARK    3  A    between atoms: _3  and  _6
REMARK    4  A    between atoms: _6  and  _7
REMARK    5  A    between atoms: _10  and  _12
REMARK    6  A    between atoms: _12  and  _13
REMARK    7  A    between atoms: _12  and  _15
REMARK    8  A    between atoms: _15  and  _16
REMARK    9  A    between atoms: _19  and  _21
REMARK   10  A    between atoms: _21  and  _22
REMARK   11  A    between atoms: _21  and  _24
REMARK   12  A    between atoms: _24  and  _25
REMARK   13  A    between atoms: _28  and  _30
REMARK   14  A    between atoms: _30  and  _31
REMARK   15  A    between atoms: _30  and  _33
REMARK   16  A    between atoms: _33  and  _34
REMARK   17  A    between atoms: _37  and  _39
REMARK   18  A    between atoms: _39  and  _40
REMARK   19  A    between atoms: _39  and  _42
REMARK   20  A    between atoms: _42  and  _43
REMARK   21  A    between atoms: _46  and  _48
REMARK   22  A    between atoms: _48  and  _49
REMARK   23  A    between atoms: _52  and  _54
REMARK   24  A    between atoms: _54  and  _55
REMARK   25  A    between atoms: _54  and  _57
REMARK   26  A    between atoms: _57  and  _58
REMARK   27  A    between atoms: _63  and  _64
REMARK   28  A    between atoms: _66  and  _68
REMARK   29  A    between atoms: _68  and  _69
REMARK   30  A    between atoms: _68  and  _71
REMARK   31  A    between atoms: _71  and  _72
REMARK   32  A    between atoms: _75  and  _77
REMARK   33  A    between atoms: _77  and  _78
REMARK   34  A    between atoms: _77  and  _80
REMARK   35  A    between atoms: _80  and  _81
REMARK   36  A    between atoms: _87  and  _89
REMARK   37  A    between atoms: _89  and  _90
REMARK   38  A    between atoms: _89  and  _92
REMARK   39  A    between atoms: _92  and  _93
REMARK   40  A    between atoms: _96  and  _98
REMARK   41  A    between atoms: _98  and  _99
REMARK   42  A    between atoms: _98  and  _101
REMARK   43  A    between atoms: _101  and  _102
REMARK   44  A    between atoms: _105  and  _107
REMARK   45  A    between atoms: _107  and  _108
REMARK   46  A    between atoms: _110  and  _112
REMARK   47  A    between atoms: _112  and  _113
REMARK   48  A    between atoms: _112  and  _115
REMARK   49  A    between atoms: _115  and  _116
REMARK   50  A    between atoms: _118  and  _120
REMARK   51  A    between atoms: _120  and  _121
REMARK   52  A    between atoms: _120  and  _123
REMARK   53  A    between atoms: _123  and  _124
REMARK   54  A    between atoms: _126  and  _128
REMARK   55  A    between atoms: _128  and  _129
REMARK   56  A    between atoms: _128  and  _131
REMARK   57  A    between atoms: _131  and  _132
REMARK   58  A    between atoms: _135  and  _137
REMARK   59  A    between atoms: _137  and  _138
REMARK   60  A    between atoms: _137  and  _140
REMARK   61  A    between atoms: _140  and  _141
REMARK   62  A    between atoms: _151  and  _153
REMARK   63  A    between atoms: _153  and  _154
REMARK   64  A    between atoms: _153  and  _156
REMARK   65  A    between atoms: _156  and  _157
REMARK   66  A    between atoms: _159  and  _161
REMARK   67  A    between atoms: _161  and  _162
REMARK   68  A    between atoms: _161  and  _164
REMARK   69  A    between atoms: _164  and  _165
REMARK   70  A    between atoms: _168  and  _170
REMARK   71  A    between atoms: _170  and  _171
REMARK   72  A    between atoms: _170  and  _173
REMARK   73  A    between atoms: _173  and  _174
REMARK   74  A    between atoms: _176  and  _178
REMARK   75  A    between atoms: _178  and  _179
REMARK   76  A    between atoms: _178  and  _181
REMARK   77  A    between atoms: _181  and  _182
REMARK   78  A    between atoms: _187  and  _188
REMARK   79  A    between atoms: _190  and  _192
REMARK   80  A    between atoms: _192  and  _193
REMARK   81  A    between atoms: _195  and  _197
REMARK   82  A    between atoms: _197  and  _198
REMARK   83  A    between atoms: _197  and  _200
REMARK   84  A    between atoms: _200  and  _201
REMARK   85  A    between atoms: _204  and  _206
REMARK   86  A    between atoms: _206  and  _207
REMARK   87  A    between atoms: _209  and  _211
REMARK   88  A    between atoms: _211  and  _212
REMARK   89  A    between atoms: _211  and  _214
REMARK   90  A    between atoms: _214  and  _215
REMARK   91  A    between atoms: _217  and  _219
REMARK   92  A    between atoms: _219  and  _220
REMARK   93  A    between atoms: _219  and  _222
REMARK   94  A    between atoms: _222  and  _223
REMARK   95  A    between atoms: _225  and  _227
REMARK   96  A    between atoms: _227  and  _228
REMARK   97  A    between atoms: _227  and  _230
REMARK   98  A    between atoms: _230  and  _231
REMARK   99  A    between atoms: _233  and  _235
REMARK  100  A    between atoms: _235  and  _236
REMARK  101  A    between atoms: _235  and  _238
REMARK  102  A    between atoms: _238  and  _239
REMARK  103  A    between atoms: _241  and  _243
REMARK  104  A    between atoms: _243  and  _244
REMARK  105  A    between atoms: _243  and  _246
REMARK  106  A    between atoms: _246  and  _247
REMARK  107  A    between atoms: _253  and  _255
REMARK  108  A    between atoms: _255  and  _256
REMARK  109  A    between atoms: _255  and  _258
REMARK  110  A    between atoms: _258  and  _259
REMARK  111  A    between atoms: _259  and  _260
REMARK  112  A    between atoms: _263  and  _265
REMARK  113  A    between atoms: _265  and  _266
REMARK  114  A    between atoms: _265  and  _268
REMARK  115  A    between atoms: _268  and  _269
REMARK  116  A    between atoms: _272  and  _274
REMARK  117  A    between atoms: _274  and  _275
REMARK  118  A    between atoms: _274  and  _277
REMARK  119  A    between atoms: _277  and  _278
REMARK  120  A    between atoms: _280  and  _282
REMARK  121  A    between atoms: _282  and  _283
REMARK  122  A    between atoms: _282  and  _285
REMARK  123  A    between atoms: _285  and  _286
REMARK  124  A    between atoms: _289  and  _291
REMARK  125  A    between atoms: _291  and  _292
REMARK  126  A    between atoms: _291  and  _294
REMARK  127  A    between atoms: _294  and  _295
REMARK  128  A    between atoms: _298  and  _300
REMARK  129  A    between atoms: _300  and  _301
REMARK  130  A    between atoms: _303  and  _305
REMARK  131  A    between atoms: _305  and  _306
REMARK  132  A    between atoms: _305  and  _308
REMARK  133  A    between atoms: _308  and  _309
REMARK  134  A    between atoms: _312  and  _314
REMARK  135  A    between atoms: _314  and  _315
REMARK  136  A    between atoms: _314  and  _317
REMARK  137  A    between atoms: _317  and  _318
REMARK  138  A    between atoms: _321  and  _323
REMARK  139  A    between atoms: _323  and  _324
REMARK  140  A    between atoms: _323  and  _326
REMARK  141  A    between atoms: _326  and  _327
REMARK  142  A    between atoms: _330  and  _332
REMARK  143  A    between atoms: _332  and  _333
REMARK  144  A    between atoms: _336  and  _338
REMARK  145  A    between atoms: _338  and  _339
REMARK  146  A    between atoms: _338  and  _341
REMARK  147  A    between atoms: _341  and  _342
REMARK  148  A    between atoms: _348  and  _350
REMARK  149  A    between atoms: _350  and  _351
REMARK  150  A    between atoms: _350  and  _353
REMARK  151  A    between atoms: _353  and  _354
REMARK  152  A    between atoms: _356  and  _358
REMARK  153  A    between atoms: _358  and  _359
REMARK  154  A    between atoms: _358  and  _361
REMARK  155  A    between atoms: _361  and  _362
REMARK  156  A    between atoms: _365  and  _367
REMARK  157  A    between atoms: _367  and  _368
REMARK  158  A    between atoms: _367  and  _370
REMARK  159  A    between atoms: _370  and  _371
REMARK  160  A    between atoms: _374  and  _376
REMARK  161  A    between atoms: _376  and  _377
REMARK  162  A    between atoms: _376  and  _379
REMARK  163  A    between atoms: _379  and  _380
REMARK  164  A    between atoms: _385  and  _387
REMARK  165  A    between atoms: _387  and  _388
REMARK  166  A    between atoms: _387  and  _390
REMARK  167  A    between atoms: _390  and  _391
REMARK  168  A    between atoms: _394  and  _396
REMARK  169  A    between atoms: _396  and  _397
REMARK  170  A    between atoms: _396  and  _399
REMARK  171  A    between atoms: _402  and  _404
REMARK  172  A    between atoms: _404  and  _405
REMARK  173  A    between atoms: _404  and  _407
REMARK  174  A    between atoms: _407  and  _408
REMARK  175  A    between atoms: _408  and  _409
REMARK  176  A    between atoms: _414  and  _416
REMARK  177  A    between atoms: _416  and  _417
REMARK  178  A    between atoms: _416  and  _419
REMARK  179  A    between atoms: _419  and  _420
REMARK  180  A    between atoms: _420  and  _421
REMARK  181  A    between atoms: _426  and  _428
REMARK  182  A    between atoms: _428  and  _429
REMARK  183  A    between atoms: _428  and  _431
REMARK  184  A    between atoms: _431  and  _432
REMARK  185  A    between atoms: _438  and  _440
REMARK  186  A    between atoms: _440  and  _441
REMARK  187  A    between atoms: _440  and  _443
REMARK  188  A    between atoms: _443  and  _444
REMARK  189  A    between atoms: _454  and  _456
REMARK  190  A    between atoms: _456  and  _457
REMARK  191  A    between atoms: _459  and  _461
REMARK  192  A    between atoms: _461  and  _462
REMARK  193  A    between atoms: _461  and  _464
REMARK  194  A    between atoms: _464  and  _465
REMARK  195  A    between atoms: _468  and  _470
REMARK  196  A    between atoms: _470  and  _471
REMARK  197  A    between atoms: _474  and  _476
REMARK  198  A    between atoms: _476  and  _477
REMARK  199  A    between atoms: _476  and  _479
REMARK  200  A    between atoms: _479  and  _480
REMARK  201  A    between atoms: _483  and  _485
REMARK  202  A    between atoms: _485  and  _486
REMARK  203  A    between atoms: _485  and  _488
REMARK  204  A    between atoms: _488  and  _489
REMARK  205  A    between atoms: _492  and  _494
REMARK  206  A    between atoms: _494  and  _495
REMARK  207  A    between atoms: _497  and  _499
REMARK  208  A    between atoms: _499  and  _500
REMARK  209  A    between atoms: _499  and  _502
REMARK  210  A    between atoms: _502  and  _503
REMARK  211  A    between atoms: _506  and  _508
REMARK  212  A    between atoms: _508  and  _509
REMARK  213  A    between atoms: _508  and  _511
REMARK  214  A    between atoms: _511  and  _512
REMARK  215  A    between atoms: _515  and  _517
REMARK  216  A    between atoms: _517  and  _518
REMARK  217  A    between atoms: _517  and  _520
REMARK  218  A    between atoms: _520  and  _521
REMARK  219  A    between atoms: _524  and  _526
REMARK  220  A    between atoms: _526  and  _527
REMARK  221  A    between atoms: _526  and  _529
REMARK  222  A    between atoms: _529  and  _530
REMARK  223  A    between atoms: _533  and  _535
REMARK  224  A    between atoms: _535  and  _536
REMARK  225  A    between atoms: _535  and  _538
REMARK  226  A    between atoms: _538  and  _539
REMARK  227  A    between atoms: _544  and  _545
REMARK  228  A    between atoms: _547  and  _549
REMARK  229  A    between atoms: _549  and  _550
REMARK  230  A    between atoms: _549  and  _552
REMARK  231  A    between atoms: _555  and  _557
REMARK  232  A    between atoms: _557  and  _558
REMARK  233  A    between atoms: _560  and  _562
REMARK  234  A    between atoms: _562  and  _563
REMARK  235  A    between atoms: _562  and  _565
REMARK  236  A    between atoms: _565  and  _566
REMARK  237  A    between atoms: _572  and  _574
REMARK  238  A    between atoms: _574  and  _575
REMARK  239  A    between atoms: _574  and  _577
REMARK  240  A    between atoms: _577  and  _578
REMARK  241  A    between atoms: _584  and  _586
REMARK  242  A    between atoms: _586  and  _587
REMARK  243  A    between atoms: _589  and  _591
REMARK  244  A    between atoms: _591  and  _592
REMARK  245  A    between atoms: _594  and  _596
REMARK  246  A    between atoms: _596  and  _597
REMARK  247  A    between atoms: _596  and  _599
REMARK  248  A    between atoms: _599  and  _600
REMARK  249  A    between atoms: _600  and  _601
REMARK  250  A    between atoms: _606  and  _608
REMARK  251  A    between atoms: _608  and  _609
REMARK  252  A    between atoms: _608  and  _611
REMARK  253  A    between atoms: _611  and  _612
REMARK  254  A    between atoms: _614  and  _616
REMARK  255  A    between atoms: _616  and  _617
REMARK  256  A    between atoms: _619  and  _621
REMARK  257  A    between atoms: _621  and  _622
REMARK  258  A    between atoms: _621  and  _624
REMARK  259  A    between atoms: _624  and  _625
REMARK  260  A    between atoms: _628  and  _630
REMARK  261  A    between atoms: _630  and  _631
REMARK  262  A    between atoms: _633  and  _635
REMARK  263  A    between atoms: _635  and  _636
REMARK  264  A    between atoms: _635  and  _638
REMARK  265  A    between atoms: _638  and  _639
REMARK  266  A    between atoms: _642  and  _644
REMARK  267  A    between atoms: _644  and  _645
REMARK  268  A    between atoms: _644  and  _647
REMARK  269  A    between atoms: _647  and  _648
REMARK  270  A    between atoms: _653  and  _655
REMARK  271  A    between atoms: _655  and  _656
REMARK  272  A    between atoms: _655  and  _658
REMARK  273  A    between atoms: _658  and  _659
REMARK  274  A    between atoms: _662  and  _664
REMARK  275  A    between atoms: _664  and  _665
REMARK  276  A    between atoms: _664  and  _667
REMARK  277  A    between atoms: _667  and  _668
REMARK  278  A    between atoms: _674  and  _676
REMARK  279  A    between atoms: _676  and  _677
REMARK  280  A    between atoms: _679  and  _681
REMARK  281  A    between atoms: _681  and  _682
REMARK  282  A    between atoms: _681  and  _684
REMARK  283  A    between atoms: _684  and  _685
REMARK                            x       y       z     vdW  Elec       q    Type
REMARK                         _______ _______ _______ _____ _____    ______ ____
ROOT
ATOM      1  O   HOH     1      10.540  38.528  13.599  0.00  0.00    +0.000 OA
ENDROOT
TORSDOF 0
REMARK  Name = ../refined-set-2016/5er2/5er2_pocket.pdb
REMARK  283 active torsions:
REMARK  status: ('A' for Active; 'I' for Inactive)
REMARK    1  A    between atoms: _1  and  _3
REMARK    2  A    between atoms: _3  and  _4
REMARK    3  A    between atoms: _3  and  _6
REMARK    4  A    between atoms: _6  and  _7
REMARK    5  A    between atoms: _10  and  _12
REMARK    6  A    between atoms: _12  and  _13
REMARK    7  A    between atoms: _12  and  _15
REMARK    8  A    between atoms: _15  and  _16
REMARK    9  A    between atoms: _19  and  _21
REMARK   10  A    between atoms: _21  and  _22
REMARK   11  A    between atoms: _21  and  _24
REMARK   12  A    between atoms: _24  and  _25
REMARK   13  A    between atoms: _28  and  _30
REMARK   14  A    between atoms: _30  and  _31
REMARK   15  A    between atoms: _30  and  _33
REMARK   16  A    between atoms: _33  and  _34
REMARK   17  A    between atoms: _37  and  _39
REMARK   18  A    between atoms: _39  and  _40
REMARK   19  A    between atoms: _39  and  _42
REMARK   20  A    between atoms: _42  and  _43
REMARK   21  A    between atoms: _46  and  _48
REMARK   22  A    between atoms: _48  and  _49
REMARK   23  A    between atoms: _52  and  _54
REMARK   24  A    between atoms: _54  and  _55
REMARK   25  A    between atoms: _54  and  _57
REMARK   26  A    between atoms: _57  and  _58
REMARK   27  A    between atoms: _63  and  _64
REMARK   28  A    between atoms: _66  and  _68
REMARK   29  A    between atoms: _68  and  _69
REMARK   30  A    between atoms: _68  and  _71
REMARK   31  A    between atoms: _71  and  _72
REMARK   32  A    between atoms: _75  and  _77
REMARK   33  A    between atoms: _77  and  _78
REMARK   34  A    between atoms: _77  and  _80
REMARK   35  A    between atoms: _80  and  _81
REMARK   36  A    between atoms: _87  and  _89
REMARK   37  A    between atoms: _89  and  _90
REMARK   38  A    between atoms: _89  and  _92
REMARK   39  A    between atoms: _92  and  _93
REMARK   40  A    between atoms: _96  and  _98
REMARK   41  A    between atoms: _98  and  _99
REMARK   42  A    between atoms: _98  and  _101
REMARK   43  A    between atoms: _101  and  _102
REMARK   44  A    between atoms: _105  and  _107
REMARK   45  A    between atoms: _107  and  _108
REMARK   46  A    between atoms: _110  and  _112
REMARK   47  A    between atoms: _112  and  _113
REMARK   48  A    between atoms: _112  and  _115
REMARK   49  A    between atoms: _115  and  _116
REMARK   50  A    between atoms: _118  and  _120
REMARK   51  A    between atoms: _120  and  _121
REMARK   52  A    between atoms: _120  and  _123
REMARK   53  A    between atoms: _123  and  _124
REMARK   54  A    between atoms: _126  and  _128
REMARK   55  A    between atoms: _128  and  _129
REMARK   56  A    between atoms: _128  and  _131
REMARK   57  A    between atoms: _131  and  _132
REMARK   58  A    between atoms: _135  and  _137
REMARK   59  A    between atoms: _137  and  _138
REMARK   60  A    between atoms: _137  and  _140
REMARK   61  A    between atoms: _140  and  _141
REMARK   62  A    between atoms: _151  and  _153
REMARK   63  A    between atoms: _153  and  _154
REMARK   64  A    between atoms: _153  and  _156
REMARK   65  A    between atoms: _156  and  _157
REMARK   66  A    between atoms: _159  and  _161
REMARK   67  A    between atoms: _161  and  _162
REMARK   68  A    between atoms: _161  and  _164
REMARK   69  A    between atoms: _164  and  _165
REMARK   70  A    between atoms: _168  and  _170
REMARK   71  A    between atoms: _170  and  _171
REMARK   72  A    between atoms: _170  and  _173
REMARK   73  A    between atoms: _173  and  _174
REMARK   74  A    between atoms: _176  and  _178
REMARK   75  A    between atoms: _178  and  _179
REMARK   76  A    between atoms: _178  and  _181
REMARK   77  A    between atoms: _181  and  _182
REMARK   78  A    between atoms: _187  and  _188
REMARK   79  A    between atoms: _190  and  _192
REMARK   80  A    between atoms: _192  and  _193
REMARK   81  A    between atoms: _195  and  _197
REMARK   82  A    between atoms: _197  and  _198
REMARK   83  A    between atoms: _197  and  _200
REMARK   84  A    between atoms: _200  and  _201
REMARK   85  A    between atoms: _204  and  _206
REMARK   86  A    between atoms: _206  and  _207
REMARK   87  A    between atoms: _209  and  _211
REMARK   88  A    between atoms: _211  and  _212
REMARK   89  A    between atoms: _211  and  _214
REMARK   90  A    between atoms: _214  and  _215
REMARK   91  A    between atoms: _217  and  _219
REMARK   92  A    between atoms: _219  and  _220
REMARK   93  A    between atoms: _219  and  _222
REMARK   94  A    between atoms: _222  and  _223
REMARK   95  A    between atoms: _225  and  _227
REMARK   96  A    between atoms: _227  and  _228
REMARK   97  A    between atoms: _227  and  _230
REMARK   98  A    between atoms: _230  and  _231
REMARK   99  A    between atoms: _233  and  _235
REMARK  100  A    between atoms: _235  and  _236
REMARK  101  A    between atoms: _235  and  _238
REMARK  102  A    between atoms: _238  and  _239
REMARK  103  A    between atoms: _241  and  _243
REMARK  104  A    between atoms: _243  and  _244
REMARK  105  A    between atoms: _243  and  _246
REMARK  106  A    between atoms: _246  and  _247
REMARK  107  A    between atoms: _253  and  _255
REMARK  108  A    between atoms: _255  and  _256
REMARK  109  A    between atoms: _255  and  _258
REMARK  110  A    between atoms: _258  and  _259
REMARK  111  A    between atoms: _259  and  _260
REMARK  112  A    between atoms: _263  and  _265
REMARK  113  A    between atoms: _265  and  _266
REMARK  114  A    between atoms: _265  and  _268
REMARK  115  A    between atoms: _268  and  _269
REMARK  116  A    between atoms: _272  and  _274
REMARK  117  A    between atoms: _274  and  _275
REMARK  118  A    between atoms: _274  and  _277
REMARK  119  A    between atoms: _277  and  _278
REMARK  120  A    between atoms: _280  and  _282
REMARK  121  A    between atoms: _282  and  _283
REMARK  122  A    between atoms: _282  and  _285
REMARK  123  A    between atoms: _285  and  _286
REMARK  124  A    between atoms: _289  and  _291
REMARK  125  A    between atoms: _291  and  _292
REMARK  126  A    between atoms: _291  and  _294
REMARK  127  A    between atoms: _294  and  _295
REMARK  128  A    between atoms: _298  and  _300
REMARK  129  A    between atoms: _300  and  _301
REMARK  130  A    between atoms: _303  and  _305
REMARK  131  A    between atoms: _305  and  _306
REMARK  132  A    between atoms: _305  and  _308
REMARK  133  A    between atoms: _308  and  _309
REMARK  134  A    between atoms: _312  and  _314
REMARK  135  A    between atoms: _314  and  _315
REMARK  136  A    between atoms: _314  and  _317
REMARK  137  A    between atoms: _317  and  _318
REMARK  138  A    between atoms: _321  and  _323
REMARK  139  A    between atoms: _323  and  _324
REMARK  140  A    between atoms: _323  and  _326
REMARK  141  A    between atoms: _326  and  _327
REMARK  142  A    between atoms: _330  and  _332
REMARK  143  A    between atoms: _332  and  _333
REMARK  144  A    between atoms: _336  and  _338
REMARK  145  A    between atoms: _338  and  _339
REMARK  146  A    between atoms: _338  and  _341
REMARK  147  A    between atoms: _341  and  _342
REMARK  148  A    between atoms: _348  and  _350
REMARK  149  A    between atoms: _350  and  _351
REMARK  150  A    between atoms: _350  and  _353
REMARK  151  A    between atoms: _353  and  _354
REMARK  152  A    between atoms: _356  and  _358
REMARK  153  A    between atoms: _358  and  _359
REMARK  154  A    between atoms: _358  and  _361
REMARK  155  A    between atoms: _361  and  _362
REMARK  156  A    between atoms: _365  and  _367
REMARK  157  A    between atoms: _367  and  _368
REMARK  158  A    between atoms: _367  and  _370
REMARK  159  A    between atoms: _370  and  _371
REMARK  160  A    between atoms: _374  and  _376
REMARK  161  A    between atoms: _376  and  _377
REMARK  162  A    between atoms: _376  and  _379
REMARK  163  A    between atoms: _379  and  _380
REMARK  164  A    between atoms: _385  and  _387
REMARK  165  A    between atoms: _387  and  _388
REMARK  166  A    between atoms: _387  and  _390
REMARK  167  A    between atoms: _390  and  _391
REMARK  168  A    between atoms: _394  and  _396
REMARK  169  A    between atoms: _396  and  _397
REMARK  170  A    between atoms: _396  and  _399
REMARK  171  A    between atoms: _402  and  _404
REMARK  172  A    between atoms: _404  and  _405
REMARK  173  A    between atoms: _404  and  _407
REMARK  174  A    between atoms: _407  and  _408
REMARK  175  A    between atoms: _408  and  _409
REMARK  176  A    between atoms: _414  and  _416
REMARK  177  A    between atoms: _416  and  _417
REMARK  178  A    between atoms: _416  and  _419
REMARK  179  A    between atoms: _419  and  _420
REMARK  180  A    between atoms: _420  and  _421
REMARK  181  A    between atoms: _426  and  _428
REMARK  182  A    between atoms: _428  and  _429
REMARK  183  A    between atoms: _428  and  _431
REMARK  184  A    between atoms: _431  and  _432
REMARK  185  A    between atoms: _438  and  _440
REMARK  186  A    between atoms: _440  and  _441
REMARK  187  A    between atoms: _440  and  _443
REMARK  188  A    between atoms: _443  and  _444
REMARK  189  A    between atoms: _454  and  _456
REMARK  190  A    between atoms: _456  and  _457
REMARK  191  A    between atoms: _459  and  _461
REMARK  192  A    between atoms: _461  and  _462
REMARK  193  A    between atoms: _461  and  _464
REMARK  194  A    between atoms: _464  and  _465
REMARK  195  A    between atoms: _468  and  _470
REMARK  196  A    between atoms: _470  and  _471
REMARK  197  A    between atoms: _474  and  _476
REMARK  198  A    between atoms: _476  and  _477
REMARK  199  A    between atoms: _476  and  _479
REMARK  200  A    between atoms: _479  and  _480
REMARK  201  A    between atoms: _483  and  _485
REMARK  202  A    between atoms: _485  and  _486
REMARK  203  A    between atoms: _485  and  _488
REMARK  204  A    between atoms: _488  and  _489
REMARK  205  A    between atoms: _492  and  _494
REMARK  206  A    between atoms: _494  and  _495
REMARK  207  A    between atoms: _497  and  _499
REMARK  208  A    between atoms: _499  and  _500
REMARK  209  A    between atoms: _499  and  _502
REMARK  210  A    between atoms: _502  and  _503
REMARK  211  A    between atoms: _506  and  _508
REMARK  212  A    between atoms: _508  and  _509
REMARK  213  A    between atoms: _508  and  _511
REMARK  214  A    between atoms: _511  and  _512
REMARK  215  A    between atoms: _515  and  _517
REMARK  216  A    between atoms: _517  and  _518
REMARK  217  A    between atoms: _517  and  _520
REMARK  218  A    between atoms: _520  and  _521
REMARK  219  A    between atoms: _524  and  _526
REMARK  220  A    between atoms: _526  and  _527
REMARK  221  A    between atoms: _526  and  _529
REMARK  222  A    between atoms: _529  and  _530
REMARK  223  A    between atoms: _533  and  _535
REMARK  224  A    between atoms: _535  and  _536
REMARK  225  A    between atoms: _535  and  _538
REMARK  226  A    between atoms: _538  and  _539
REMARK  227  A    between atoms: _544  and  _545
REMARK  228  A    between atoms: _547  and  _549
REMARK  229  A    between atoms: _549  and  _550
REMARK  230  A    between atoms: _549  and  _552
REMARK  231  A    between atoms: _555  and  _557
REMARK  232  A    between atoms: _557  and  _558
REMARK  233  A    between atoms: _560  and  _562
REMARK  234  A    between atoms: _562  and  _563
REMARK  235  A    between atoms: _562  and  _565
REMARK  236  A    between atoms: _565  and  _566
REMARK  237  A    between atoms: _572  and  _574
REMARK  238  A    between atoms: _574  and  _575
REMARK  239  A    between atoms: _574  and  _577
REMARK  240  A    between atoms: _577  and  _578
REMARK  241  A    between atoms: _584  and  _586
REMARK  242  A    between atoms: _586  and  _587
REMARK  243  A    between atoms: _589  and  _591
REMARK  244  A    between atoms: _591  and  _592
REMARK  245  A    between atoms: _594  and  _596
REMARK  246  A    between atoms: _596  and  _597
REMARK  247  A    between atoms: _596  and  _599
REMARK  248  A    between atoms: _599  and  _600
REMARK  249  A    between atoms: _600  and  _601
REMARK  250  A    between atoms: _606  and  _608
REMARK  251  A    between atoms: _608  and  _609
REMARK  252  A    between atoms: _608  and  _611
REMARK  253  A    between atoms: _611  and  _612
REMARK  254  A    between atoms: _614  and  _616
REMARK  255  A    between atoms: _616  and  _617
REMARK  256  A    between atoms: _619  and  _621
REMARK  257  A    between atoms: _621  and  _622
REMARK  258  A    between atoms: _621  and  _624
REMARK  259  A    between atoms: _624  and  _625
REMARK  260  A    between atoms: _628  and  _630
REMARK  261  A    between atoms: _630  and  _631
REMARK  262  A    between atoms: _633  and  _635
REMARK  263  A    between atoms: _635  and  _636
REMARK  264  A    between atoms: _635  and  _638
REMARK  265  A    between atoms: _638  and  _639
REMARK  266  A    between atoms: _642  and  _644
REMARK  267  A    between atoms: _644  and  _645
REMARK  268  A    between atoms: _644  and  _647
REMARK  269  A    between atoms: _647  and  _648
REMARK  270  A    between atoms: _653  and  _655
REMARK  271  A    between atoms: _655  and  _656
REMARK  272  A    between atoms: _655  and  _658
REMARK  273  A    between atoms: _658  and  _659
REMARK  274  A    between atoms: _662  and  _664
REMARK  275  A    between atoms: _664  and  _665
REMARK  276  A    between atoms: _664  and  _667
REMARK  277  A    between atoms: _667  and  _668
REMARK  278  A    between atoms: _674  and  _676
REMARK  279  A    between atoms: _676  and  _677
REMARK  280  A    between atoms: _679  and  _681
REMARK  281  A    between atoms: _681  and  _682
REMARK  282  A    between atoms: _681  and  _684
REMARK  283  A    between atoms: _684  and  _685
REMARK                            x       y       z     vdW  Elec       q    Type
REMARK                         _______ _______ _______ _____ _____    ______ ____
ROOT
ATOM      1  O   HOH     1       2.973  43.735  15.007  0.00  0.00    +0.000 OA
ENDROOT
TORSDOF 0
REMARK  Name = ../refined-set-2016/5er2/5er2_pocket.pdb
REMARK  283 active torsions:
REMARK  status: ('A' for Active; 'I' for Inactive)
REMARK    1  A    between atoms: _1  and  _3
REMARK    2  A    between atoms: _3  and  _4
REMARK    3  A    between atoms: _3  and  _6
REMARK    4  A    between atoms: _6  and  _7
REMARK    5  A    between atoms: _10  and  _12
REMARK    6  A    between atoms: _12  and  _13
REMARK    7  A    between atoms: _12  and  _15
REMARK    8  A    between atoms: _15  and  _16
REMARK    9  A    between atoms: _19  and  _21
REMARK   10  A    between atoms: _21  and  _22
REMARK   11  A    between atoms: _21  and  _24
REMARK   12  A    between atoms: _24  and  _25
REMARK   13  A    between atoms: _28  and  _30
REMARK   14  A    between atoms: _30  and  _31
REMARK   15  A    between atoms: _30  and  _33
REMARK   16  A    between atoms: _33  and  _34
REMARK   17  A    between atoms: _37  and  _39
REMARK   18  A    between atoms: _39  and  _40
REMARK   19  A    between atoms: _39  and  _42
REMARK   20  A    between atoms: _42  and  _43
REMARK   21  A    between atoms: _46  and  _48
REMARK   22  A    between atoms: _48  and  _49
REMARK   23  A    between atoms: _52  and  _54
REMARK   24  A    between atoms: _54  and  _55
REMARK   25  A    between atoms: _54  and  _57
REMARK   26  A    between atoms: _57  and  _58
REMARK   27  A    between atoms: _63  and  _64
REMARK   28  A    between atoms: _66  and  _68
REMARK   29  A    between atoms: _68  and  _69
REMARK   30  A    between atoms: _68  and  _71
REMARK   31  A    between atoms: _71  and  _72
REMARK   32  A    between atoms: _75  and  _77
REMARK   33  A    between atoms: _77  and  _78
REMARK   34  A    between atoms: _77  and  _80
REMARK   35  A    between atoms: _80  and  _81
REMARK   36  A    between atoms: _87  and  _89
REMARK   37  A    between atoms: _89  and  _90
REMARK   38  A    between atoms: _89  and  _92
REMARK   39  A    between atoms: _92  and  _93
REMARK   40  A    between atoms: _96  and  _98
REMARK   41  A    between atoms: _98  and  _99
REMARK   42  A    between atoms: _98  and  _101
REMARK   43  A    between atoms: _101  and  _102
REMARK   44  A    between atoms: _105  and  _107
REMARK   45  A    between atoms: _107  and  _108
REMARK   46  A    between atoms: _110  and  _112
REMARK   47  A    between atoms: _112  and  _113
REMARK   48  A    between atoms: _112  and  _115
REMARK   49  A    between atoms: _115  and  _116
REMARK   50  A    between atoms: _118  and  _120
REMARK   51  A    between atoms: _120  and  _121
REMARK   52  A    between atoms: _120  and  _123
REMARK   53  A    between atoms: _123  and  _124
REMARK   54  A    between atoms: _126  and  _128
REMARK   55  A    between atoms: _128  and  _129
REMARK   56  A    between atoms: _128  and  _131
REMARK   57  A    between atoms: _131  and  _132
REMARK   58  A    between atoms: _135  and  _137
REMARK   59  A    between atoms: _137  and  _138
REMARK   60  A    between atoms: _137  and  _140
REMARK   61  A    between atoms: _140  and  _141
REMARK   62  A    between atoms: _151  and  _153
REMARK   63  A    between atoms: _153  and  _154
REMARK   64  A    between atoms: _153  and  _156
REMARK   65  A    between atoms: _156  and  _157
REMARK   66  A    between atoms: _159  and  _161
REMARK   67  A    between atoms: _161  and  _162
REMARK   68  A    between atoms: _161  and  _164
REMARK   69  A    between atoms: _164  and  _165
REMARK   70  A    between atoms: _168  and  _170
REMARK   71  A    between atoms: _170  and  _171
REMARK   72  A    between atoms: _170  and  _173
REMARK   73  A    between atoms: _173  and  _174
REMARK   74  A    between atoms: _176  and  _178
REMARK   75  A    between atoms: _178  and  _179
REMARK   76  A    between atoms: _178  and  _181
REMARK   77  A    between atoms: _181  and  _182
REMARK   78  A    between atoms: _187  and  _188
REMARK   79  A    between atoms: _190  and  _192
REMARK   80  A    between atoms: _192  and  _193
REMARK   81  A    between atoms: _195  and  _197
REMARK   82  A    between atoms: _197  and  _198
REMARK   83  A    between atoms: _197  and  _200
REMARK   84  A    between atoms: _200  and  _201
REMARK   85  A    between atoms: _204  and  _206
REMARK   86  A    between atoms: _206  and  _207
REMARK   87  A    between atoms: _209  and  _211
REMARK   88  A    between atoms: _211  and  _212
REMARK   89  A    between atoms: _211  and  _214
REMARK   90  A    between atoms: _214  and  _215
REMARK   91  A    between atoms: _217  and  _219
REMARK   92  A    between atoms: _219  and  _220
REMARK   93  A    between atoms: _219  and  _222
REMARK   94  A    between atoms: _222  and  _223
REMARK   95  A    between atoms: _225  and  _227
REMARK   96  A    between atoms: _227  and  _228
REMARK   97  A    between atoms: _227  and  _230
REMARK   98  A    between atoms: _230  and  _231
REMARK   99  A    between atoms: _233  and  _235
REMARK  100  A    between atoms: _235  and  _236
REMARK  101  A    between atoms: _235  and  _238
REMARK  102  A    between atoms: _238  and  _239
REMARK  103  A    between atoms: _241  and  _243
REMARK  104  A    between atoms: _243  and  _244
REMARK  105  A    between atoms: _243  and  _246
REMARK  106  A    between atoms: _246  and  _247
REMARK  107  A    between atoms: _253  and  _255
REMARK  108  A    between atoms: _255  and  _256
REMARK  109  A    between atoms: _255  and  _258
REMARK  110  A    between atoms: _258  and  _259
REMARK  111  A    between atoms: _259  and  _260
REMARK  112  A    between atoms: _263  and  _265
REMARK  113  A    between atoms: _265  and  _266
REMARK  114  A    between atoms: _265  and  _268
REMARK  115  A    between atoms: _268  and  _269
REMARK  116  A    between atoms: _272  and  _274
REMARK  117  A    between atoms: _274  and  _275
REMARK  118  A    between atoms: _274  and  _277
REMARK  119  A    between atoms: _277  and  _278
REMARK  120  A    between atoms: _280  and  _282
REMARK  121  A    between atoms: _282  and  _283
REMARK  122  A    between atoms: _282  and  _285
REMARK  123  A    between atoms: _285  and  _286
REMARK  124  A    between atoms: _289  and  _291
REMARK  125  A    between atoms: _291  and  _292
REMARK  126  A    between atoms: _291  and  _294
REMARK  127  A    between atoms: _294  and  _295
REMARK  128  A    between atoms: _298  and  _300
REMARK  129  A    between atoms: _300  and  _301
REMARK  130  A    between atoms: _303  and  _305
REMARK  131  A    between atoms: _305  and  _306
REMARK  132  A    between atoms: _305  and  _308
REMARK  133  A    between atoms: _308  and  _309
REMARK  134  A    between atoms: _312  and  _314
REMARK  135  A    between atoms: _314  and  _315
REMARK  136  A    between atoms: _314  and  _317
REMARK  137  A    between atoms: _317  and  _318
REMARK  138  A    between atoms: _321  and  _323
REMARK  139  A    between atoms: _323  and  _324
REMARK  140  A    between atoms: _323  and  _326
REMARK  141  A    between atoms: _326  and  _327
REMARK  142  A    between atoms: _330  and  _332
REMARK  143  A    between atoms: _332  and  _333
REMARK  144  A    between atoms: _336  and  _338
REMARK  145  A    between atoms: _338  and  _339
REMARK  146  A    between atoms: _338  and  _341
REMARK  147  A    between atoms: _341  and  _342
REMARK  148  A    between atoms: _348  and  _350
REMARK  149  A    between atoms: _350  and  _351
REMARK  150  A    between atoms: _350  and  _353
REMARK  151  A    between atoms: _353  and  _354
REMARK  152  A    between atoms: _356  and  _358
REMARK  153  A    between atoms: _358  and  _359
REMARK  154  A    between atoms: _358  and  _361
REMARK  155  A    between atoms: _361  and  _362
REMARK  156  A    between atoms: _365  and  _367
REMARK  157  A    between atoms: _367  and  _368
REMARK  158  A    between atoms: _367  and  _370
REMARK  159  A    between atoms: _370  and  _371
REMARK  160  A    between atoms: _374  and  _376
REMARK  161  A    between atoms: _376  and  _377
REMARK  162  A    between atoms: _376  and  _379
REMARK  163  A    between atoms: _379  and  _380
REMARK  164  A    between atoms: _385  and  _387
REMARK  165  A    between atoms: _387  and  _388
REMARK  166  A    between atoms: _387  and  _390
REMARK  167  A    between atoms: _390  and  _391
REMARK  168  A    between atoms: _394  and  _396
REMARK  169  A    between atoms: _396  and  _397
REMARK  170  A    between atoms: _396  and  _399
REMARK  171  A    between atoms: _402  and  _404
REMARK  172  A    between atoms: _404  and  _405
REMARK  173  A    between atoms: _404  and  _407
REMARK  174  A    between atoms: _407  and  _408
REMARK  175  A    between atoms: _408  and  _409
REMARK  176  A    between atoms: _414  and  _416
REMARK  177  A    between atoms: _416  and  _417
REMARK  178  A    between atoms: _416  and  _419
REMARK  179  A    between atoms: _419  and  _420
REMARK  180  A    between atoms: _420  and  _421
REMARK  181  A    between atoms: _426  and  _428
REMARK  182  A    between atoms: _428  and  _429
REMARK  183  A    between atoms: _428  and  _431
REMARK  184  A    between atoms: _431  and  _432
REMARK  185  A    between atoms: _438  and  _440
REMARK  186  A    between atoms: _440  and  _441
REMARK  187  A    between atoms: _440  and  _443
REMARK  188  A    between atoms: _443  and  _444
REMARK  189  A    between atoms: _454  and  _456
REMARK  190  A    between atoms: _456  and  _457
REMARK  191  A    between atoms: _459  and  _461
REMARK  192  A    between atoms: _461  and  _462
REMARK  193  A    between atoms: _461  and  _464
REMARK  194  A    between atoms: _464  and  _465
REMARK  195  A    between atoms: _468  and  _470
REMARK  196  A    between atoms: _470  and  _471
REMARK  197  A    between atoms: _474  and  _476
REMARK  198  A    between atoms: _476  and  _477
REMARK  199  A    between atoms: _476  and  _479
REMARK  200  A    between atoms: _479  and  _480
REMARK  201  A    between atoms: _483  and  _485
REMARK  202  A    between atoms: _485  and  _486
REMARK  203  A    between atoms: _485  and  _488
REMARK  204  A    between atoms: _488  and  _489
REMARK  205  A    between atoms: _492  and  _494
REMARK  206  A    between atoms: _494  and  _495
REMARK  207  A    between atoms: _497  and  _499
REMARK  208  A    between atoms: _499  and  _500
REMARK  209  A    between atoms: _499  and  _502
REMARK  210  A    between atoms: _502  and  _503
REMARK  211  A    between atoms: _506  and  _508
REMARK  212  A    between atoms: _508  and  _509
REMARK  213  A    between atoms: _508  and  _511
REMARK  214  A    between atoms: _511  and  _512
REMARK  215  A    between atoms: _515  and  _517
REMARK  216  A    between atoms: _517  and  _518
REMARK  217  A    between atoms: _517  and  _520
REMARK  218  A    between atoms: _520  and  _521
REMARK  219  A    between atoms: _524  and  _526
REMARK  220  A    between atoms: _526  and  _527
REMARK  221  A    between atoms: _526  and  _529
REMARK  222  A    between atoms: _529  and  _530
REMARK  223  A    between atoms: _533  and  _535
REMARK  224  A    between atoms: _535  and  _536
REMARK  225  A    between atoms: _535  and  _538
REMARK  226  A    between atoms: _538  and  _539
REMARK  227  A    between atoms: _544  and  _545
REMARK  228  A    between atoms: _547  and  _549
REMARK  229  A    between atoms: _549  and  _550
REMARK  230  A    between atoms: _549  and  _552
REMARK  231  A    between atoms: _555  and  _557
REMARK  232  A    between atoms: _557  and  _558
REMARK  233  A    between atoms: _560  and  _562
REMARK  234  A    between atoms: _562  and  _563
REMARK  235  A    between atoms: _562  and  _565
REMARK  236  A    between atoms: _565  and  _566
REMARK  237  A    between atoms: _572  and  _574
REMARK  238  A    between atoms: _574  and  _575
REMARK  239  A    between atoms: _574  and  _577
REMARK  240  A    between atoms: _577  and  _578
REMARK  241  A    between atoms: _584  and  _586
REMARK  242  A    between atoms: _586  and  _587
REMARK  243  A    between atoms: _589  and  _591
REMARK  244  A    between atoms: _591  and  _592
REMARK  245  A    between atoms: _594  and  _596
REMARK  246  A    between atoms: _596  and  _597
REMARK  247  A    between atoms: _596  and  _599
REMARK  248  A    between atoms: _599  and  _600
REMARK  249  A    between atoms: _600  and  _601
REMARK  250  A    between atoms: _606  and  _608
REMARK  251  A    between atoms: _608  and  _609
REMARK  252  A    between atoms: _608  and  _611
REMARK  253  A    between atoms: _611  and  _612
REMARK  254  A    between atoms: _614  and  _616
REMARK  255  A    between atoms: _616  and  _617
REMARK  256  A    between atoms: _619  and  _621
REMARK  257  A    between atoms: _621  and  _622
REMARK  258  A    between atoms: _621  and  _624
REMARK  259  A    between atoms: _624  and  _625
REMARK  260  A    between atoms: _628  and  _630
REMARK  261  A    between atoms: _630  and  _631
REMARK  262  A    between atoms: _633  and  _635
REMARK  263  A    between atoms: _635  and  _636
REMARK  264  A    between atoms: _635  and  _638
REMARK  265  A    between atoms: _638  and  _639
REMARK  266  A    between atoms: _642  and  _644
REMARK  267  A    between atoms: _644  and  _645
REMARK  268  A    between atoms: _644  and  _647
REMARK  269  A    between atoms: _647  and  _648
REMARK  270  A    between atoms: _653  and  _655
REMARK  271  A    between atoms: _655  and  _656
REMARK  272  A    between atoms: _655  and  _658
REMARK  273  A    between atoms: _658  and  _659
REMARK  274  A    between atoms: _662  and  _664
REMARK  275  A    between atoms: _664  and  _665
REMARK  276  A    between atoms: _664  and  _667
REMARK  277  A    between atoms: _667  and  _668
REMARK  278  A    between atoms: _674  and  _676
REMARK  279  A    between atoms: _676  and  _677
REMARK  280  A    between atoms: _679  and  _681
REMARK  281  A    between atoms: _681  and  _682
REMARK  282  A    between atoms: _681  and  _684
REMARK  283  A    between atoms: _684  and  _685
REMARK                            x       y       z     vdW  Elec       q    Type
REMARK                         _______ _______ _______ _____ _____    ______ ____
ROOT
ATOM      1  O   HOH     1       7.718  41.507  10.828  0.00  0.00    +0.000 OA
ENDROOT
TORSDOF 0
REMARK  Name = ../refined-set-2016/5er2/5er2_pocket.pdb
REMARK  283 active torsions:
REMARK  status: ('A' for Active; 'I' for Inactive)
REMARK    1  A    between atoms: _1  and  _3
REMARK    2  A    between atoms: _3  and  _4
REMARK    3  A    between atoms: _3  and  _6
REMARK    4  A    between atoms: _6  and  _7
REMARK    5  A    between atoms: _10  and  _12
REMARK    6  A    between atoms: _12  and  _13
REMARK    7  A    between atoms: _12  and  _15
REMARK    8  A    between atoms: _15  and  _16
REMARK    9  A    between atoms: _19  and  _21
REMARK   10  A    between atoms: _21  and  _22
REMARK   11  A    between atoms: _21  and  _24
REMARK   12  A    between atoms: _24  and  _25
REMARK   13  A    between atoms: _28  and  _30
REMARK   14  A    between atoms: _30  and  _31
REMARK   15  A    between atoms: _30  and  _33
REMARK   16  A    between atoms: _33  and  _34
REMARK   17  A    between atoms: _37  and  _39
REMARK   18  A    between atoms: _39  and  _40
REMARK   19  A    between atoms: _39  and  _42
REMARK   20  A    between atoms: _42  and  _43
REMARK   21  A    between atoms: _46  and  _48
REMARK   22  A    between atoms: _48  and  _49
REMARK   23  A    between atoms: _52  and  _54
REMARK   24  A    between atoms: _54  and  _55
REMARK   25  A    between atoms: _54  and  _57
REMARK   26  A    between atoms: _57  and  _58
REMARK   27  A    between atoms: _63  and  _64
REMARK   28  A    between atoms: _66  and  _68
REMARK   29  A    between atoms: _68  and  _69
REMARK   30  A    between atoms: _68  and  _71
REMARK   31  A    between atoms: _71  and  _72
REMARK   32  A    between atoms: _75  and  _77
REMARK   33  A    between atoms: _77  and  _78
REMARK   34  A    between atoms: _77  and  _80
REMARK   35  A    between atoms: _80  and  _81
REMARK   36  A    between atoms: _87  and  _89
REMARK   37  A    between atoms: _89  and  _90
REMARK   38  A    between atoms: _89  and  _92
REMARK   39  A    between atoms: _92  and  _93
REMARK   40  A    between atoms: _96  and  _98
REMARK   41  A    between atoms: _98  and  _99
REMARK   42  A    between atoms: _98  and  _101
REMARK   43  A    between atoms: _101  and  _102
REMARK   44  A    between atoms: _105  and  _107
REMARK   45  A    between atoms: _107  and  _108
REMARK   46  A    between atoms: _110  and  _112
REMARK   47  A    between atoms: _112  and  _113
REMARK   48  A    between atoms: _112  and  _115
REMARK   49  A    between atoms: _115  and  _116
REMARK   50  A    between atoms: _118  and  _120
REMARK   51  A    between atoms: _120  and  _121
REMARK   52  A    between atoms: _120  and  _123
REMARK   53  A    between atoms: _123  and  _124
REMARK   54  A    between atoms: _126  and  _128
REMARK   55  A    between atoms: _128  and  _129
REMARK   56  A    between atoms: _128  and  _131
REMARK   57  A    between atoms: _131  and  _132
REMARK   58  A    between atoms: _135  and  _137
REMARK   59  A    between atoms: _137  and  _138
REMARK   60  A    between atoms: _137  and  _140
REMARK   61  A    between atoms: _140  and  _141
REMARK   62  A    between atoms: _151  and  _153
REMARK   63  A    between atoms: _153  and  _154
REMARK   64  A    between atoms: _153  and  _156
REMARK   65  A    between atoms: _156  and  _157
REMARK   66  A    between atoms: _159  and  _161
REMARK   67  A    between atoms: _161  and  _162
REMARK   68  A    between atoms: _161  and  _164
REMARK   69  A    between atoms: _164  and  _165
REMARK   70  A    between atoms: _168  and  _170
REMARK   71  A    between atoms: _170  and  _171
REMARK   72  A    between atoms: _170  and  _173
REMARK   73  A    between atoms: _173  and  _174
REMARK   74  A    between atoms: _176  and  _178
REMARK   75  A    between atoms: _178  and  _179
REMARK   76  A    between atoms: _178  and  _181
REMARK   77  A    between atoms: _181  and  _182
REMARK   78  A    between atoms: _187  and  _188
REMARK   79  A    between atoms: _190  and  _192
REMARK   80  A    between atoms: _192  and  _193
REMARK   81  A    between atoms: _195  and  _197
REMARK   82  A    between atoms: _197  and  _198
REMARK   83  A    between atoms: _197  and  _200
REMARK   84  A    between atoms: _200  and  _201
REMARK   85  A    between atoms: _204  and  _206
REMARK   86  A    between atoms: _206  and  _207
REMARK   87  A    between atoms: _209  and  _211
REMARK   88  A    between atoms: _211  and  _212
REMARK   89  A    between atoms: _211  and  _214
REMARK   90  A    between atoms: _214  and  _215
REMARK   91  A    between atoms: _217  and  _219
REMARK   92  A    between atoms: _219  and  _220
REMARK   93  A    between atoms: _219  and  _222
REMARK   94  A    between atoms: _222  and  _223
REMARK   95  A    between atoms: _225  and  _227
REMARK   96  A    between atoms: _227  and  _228
REMARK   97  A    between atoms: _227  and  _230
REMARK   98  A    between atoms: _230  and  _231
REMARK   99  A    between atoms: _233  and  _235
REMARK  100  A    between atoms: _235  and  _236
REMARK  101  A    between atoms: _235  and  _238
REMARK  102  A    between atoms: _238  and  _239
REMARK  103  A    between atoms: _241  and  _243
REMARK  104  A    between atoms: _243  and  _244
REMARK  105  A    between atoms: _243  and  _246
REMARK  106  A    between atoms: _246  and  _247
REMARK  107  A    between atoms: _253  and  _255
REMARK  108  A    between atoms: _255  and  _256
REMARK  109  A    between atoms: _255  and  _258
REMARK  110  A    between atoms: _258  and  _259
REMARK  111  A    between atoms: _259  and  _260
REMARK  112  A    between atoms: _263  and  _265
REMARK  113  A    between atoms: _265  and  _266
REMARK  114  A    between atoms: _265  and  _268
REMARK  115  A    between atoms: _268  and  _269
REMARK  116  A    between atoms: _272  and  _274
REMARK  117  A    between atoms: _274  and  _275
REMARK  118  A    between atoms: _274  and  _277
REMARK  119  A    between atoms: _277  and  _278
REMARK  120  A    between atoms: _280  and  _282
REMARK  121  A    between atoms: _282  and  _283
REMARK  122  A    between atoms: _282  and  _285
REMARK  123  A    between atoms: _285  and  _286
REMARK  124  A    between atoms: _289  and  _291
REMARK  125  A    between atoms: _291  and  _292
REMARK  126  A    between atoms: _291  and  _294
REMARK  127  A    between atoms: _294  and  _295
REMARK  128  A    between atoms: _298  and  _300
REMARK  129  A    between atoms: _300  and  _301
REMARK  130  A    between atoms: _303  and  _305
REMARK  131  A    between atoms: _305  and  _306
REMARK  132  A    between atoms: _305  and  _308
REMARK  133  A    between atoms: _308  and  _309
REMARK  134  A    between atoms: _312  and  _314
REMARK  135  A    between atoms: _314  and  _315
REMARK  136  A    between atoms: _314  and  _317
REMARK  137  A    between atoms: _317  and  _318
REMARK  138  A    between atoms: _321  and  _323
REMARK  139  A    between atoms: _323  and  _324
REMARK  140  A    between atoms: _323  and  _326
REMARK  141  A    between atoms: _326  and  _327
REMARK  142  A    between atoms: _330  and  _332
REMARK  143  A    between atoms: _332  and  _333
REMARK  144  A    between atoms: _336  and  _338
REMARK  145  A    between atoms: _338  and  _339
REMARK  146  A    between atoms: _338  and  _341
REMARK  147  A    between atoms: _341  and  _342
REMARK  148  A    between atoms: _348  and  _350
REMARK  149  A    between atoms: _350  and  _351
REMARK  150  A    between atoms: _350  and  _353
REMARK  151  A    between atoms: _353  and  _354
REMARK  152  A    between atoms: _356  and  _358
REMARK  153  A    between atoms: _358  and  _359
REMARK  154  A    between atoms: _358  and  _361
REMARK  155  A    between atoms: _361  and  _362
REMARK  156  A    between atoms: _365  and  _367
REMARK  157  A    between atoms: _367  and  _368
REMARK  158  A    between atoms: _367  and  _370
REMARK  159  A    between atoms: _370  and  _371
REMARK  160  A    between atoms: _374  and  _376
REMARK  161  A    between atoms: _376  and  _377
REMARK  162  A    between atoms: _376  and  _379
REMARK  163  A    between atoms: _379  and  _380
REMARK  164  A    between atoms: _385  and  _387
REMARK  165  A    between atoms: _387  and  _388
REMARK  166  A    between atoms: _387  and  _390
REMARK  167  A    between atoms: _390  and  _391
REMARK  168  A    between atoms: _394  and  _396
REMARK  169  A    between atoms: _396  and  _397
REMARK  170  A    between atoms: _396  and  _399
REMARK  171  A    between atoms: _402  and  _404
REMARK  172  A    between atoms: _404  and  _405
REMARK  173  A    between atoms: _404  and  _407
REMARK  174  A    between atoms: _407  and  _408
REMARK  175  A    between atoms: _408  and  _409
REMARK  176  A    between atoms: _414  and  _416
REMARK  177  A    between atoms: _416  and  _417
REMARK  178  A    between atoms: _416  and  _419
REMARK  179  A    between atoms: _419  and  _420
REMARK  180  A    between atoms: _420  and  _421
REMARK  181  A    between atoms: _426  and  _428
REMARK  182  A    between atoms: _428  and  _429
REMARK  183  A    between atoms: _428  and  _431
REMARK  184  A    between atoms: _431  and  _432
REMARK  185  A    between atoms: _438  and  _440
REMARK  186  A    between atoms: _440  and  _441
REMARK  187  A    between atoms: _440  and  _443
REMARK  188  A    between atoms: _443  and  _444
REMARK  189  A    between atoms: _454  and  _456
REMARK  190  A    between atoms: _456  and  _457
REMARK  191  A    between atoms: _459  and  _461
REMARK  192  A    between atoms: _461  and  _462
REMARK  193  A    between atoms: _461  and  _464
REMARK  194  A    between atoms: _464  and  _465
REMARK  195  A    between atoms: _468  and  _470
REMARK  196  A    between atoms: _470  and  _471
REMARK  197  A    between atoms: _474  and  _476
REMARK  198  A    between atoms: _476  and  _477
REMARK  199  A    between atoms: _476  and  _479
REMARK  200  A    between atoms: _479  and  _480
REMARK  201  A    between atoms: _483  and  _485
REMARK  202  A    between atoms: _485  and  _486
REMARK  203  A    between atoms: _485  and  _488
REMARK  204  A    between atoms: _488  and  _489
REMARK  205  A    between atoms: _492  and  _494
REMARK  206  A    between atoms: _494  and  _495
REMARK  207  A    between atoms: _497  and  _499
REMARK  208  A    between atoms: _499  and  _500
REMARK  209  A    between atoms: _499  and  _502
REMARK  210  A    between atoms: _502  and  _503
REMARK  211  A    between atoms: _506  and  _508
REMARK  212  A    between atoms: _508  and  _509
REMARK  213  A    between atoms: _508  and  _511
REMARK  214  A    between atoms: _511  and  _512
REMARK  215  A    between atoms: _515  and  _517
REMARK  216  A    between atoms: _517  and  _518
REMARK  217  A    between atoms: _517  and  _520
REMARK  218  A    between atoms: _520  and  _521
REMARK  219  A    between atoms: _524  and  _526
REMARK  220  A    between atoms: _526  and  _527
REMARK  221  A    between atoms: _526  and  _529
REMARK  222  A    between atoms: _529  and  _530
REMARK  223  A    between atoms: _533  and  _535
REMARK  224  A    between atoms: _535  and  _536
REMARK  225  A    between atoms: _535  and  _538
REMARK  226  A    between atoms: _538  and  _539
REMARK  227  A    between atoms: _544  and  _545
REMARK  228  A    between atoms: _547  and  _549
REMARK  229  A    between atoms: _549  and  _550
REMARK  230  A    between atoms: _549  and  _552
REMARK  231  A    between atoms: _555  and  _557
REMARK  232  A    between atoms: _557  and  _558
REMARK  233  A    between atoms: _560  and  _562
REMARK  234  A    between atoms: _562  and  _563
REMARK  235  A    between atoms: _562  and  _565
REMARK  236  A    between atoms: _565  and  _566
REMARK  237  A    between atoms: _572  and  _574
REMARK  238  A    between atoms: _574  and  _575
REMARK  239  A    between atoms: _574  and  _577
REMARK  240  A    between atoms: _577  and  _578
REMARK  241  A    between atoms: _584  and  _586
REMARK  242  A    between atoms: _586  and  _587
REMARK  243  A    between atoms: _589  and  _591
REMARK  244  A    between atoms: _591  and  _592
REMARK  245  A    between atoms: _594  and  _596
REMARK  246  A    between atoms: _596  and  _597
REMARK  247  A    between atoms: _596  and  _599
REMARK  248  A    between atoms: _599  and  _600
REMARK  249  A    between atoms: _600  and  _601
REMARK  250  A    between atoms: _606  and  _608
REMARK  251  A    between atoms: _608  and  _609
REMARK  252  A    between atoms: _608  and  _611
REMARK  253  A    between atoms: _611  and  _612
REMARK  254  A    between atoms: _614  and  _616
REMARK  255  A    between atoms: _616  and  _617
REMARK  256  A    between atoms: _619  and  _621
REMARK  257  A    between atoms: _621  and  _622
REMARK  258  A    between atoms: _621  and  _624
REMARK  259  A    between atoms: _624  and  _625
REMARK  260  A    between atoms: _628  and  _630
REMARK  261  A    between atoms: _630  and  _631
REMARK  262  A    between atoms: _633  and  _635
REMARK  263  A    between atoms: _635  and  _636
REMARK  264  A    between atoms: _635  and  _638
REMARK  265  A    between atoms: _638  and  _639
REMARK  266  A    between atoms: _642  and  _644
REMARK  267  A    between atoms: _644  and  _645
REMARK  268  A    between atoms: _644  and  _647
REMARK  269  A    between atoms: _647  and  _648
REMARK  270  A    between atoms: _653  and  _655
REMARK  271  A    between atoms: _655  and  _656
REMARK  272  A    between atoms: _655  and  _658
REMARK  273  A    between atoms: _658  and  _659
REMARK  274  A    between atoms: _662  and  _664
REMARK  275  A    between atoms: _664  and  _665
REMARK  276  A    between atoms: _664  and  _667
REMARK  277  A    between atoms: _667  and  _668
REMARK  278  A    between atoms: _674  and  _676
REMARK  279  A    between atoms: _676  and  _677
REMARK  280  A    between atoms: _679  and  _681
REMARK  281  A    between atoms: _681  and  _682
REMARK  282  A    between atoms: _681  and  _684
REMARK  283  A    between atoms: _684  and  _685
REMARK                            x       y       z     vdW  Elec       q    Type
REMARK                         _______ _______ _______ _____ _____    ______ ____
ROOT
ATOM      1  O   HOH     1      -5.906  30.465  19.566  0.00  0.00    +0.000 OA
ENDROOT
TORSDOF 0
REMARK  Name = ../refined-set-2016/5er2/5er2_pocket.pdb
REMARK  283 active torsions:
REMARK  status: ('A' for Active; 'I' for Inactive)
REMARK    1  A    between atoms: _1  and  _3
REMARK    2  A    between atoms: _3  and  _4
REMARK    3  A    between atoms: _3  and  _6
REMARK    4  A    between atoms: _6  and  _7
REMARK    5  A    between atoms: _10  and  _12
REMARK    6  A    between atoms: _12  and  _13
REMARK    7  A    between atoms: _12  and  _15
REMARK    8  A    between atoms: _15  and  _16
REMARK    9  A    between atoms: _19  and  _21
REMARK   10  A    between atoms: _21  and  _22
REMARK   11  A    between atoms: _21  and  _24
REMARK   12  A    between atoms: _24  and  _25
REMARK   13  A    between atoms: _28  and  _30
REMARK   14  A    between atoms: _30  and  _31
REMARK   15  A    between atoms: _30  and  _33
REMARK   16  A    between atoms: _33  and  _34
REMARK   17  A    between atoms: _37  and  _39
REMARK   18  A    between atoms: _39  and  _40
REMARK   19  A    between atoms: _39  and  _42
REMARK   20  A    between atoms: _42  and  _43
REMARK   21  A    between atoms: _46  and  _48
REMARK   22  A    between atoms: _48  and  _49
REMARK   23  A    between atoms: _52  and  _54
REMARK   24  A    between atoms: _54  and  _55
REMARK   25  A    between atoms: _54  and  _57
REMARK   26  A    between atoms: _57  and  _58
REMARK   27  A    between atoms: _63  and  _64
REMARK   28  A    between atoms: _66  and  _68
REMARK   29  A    between atoms: _68  and  _69
REMARK   30  A    between atoms: _68  and  _71
REMARK   31  A    between atoms: _71  and  _72
REMARK   32  A    between atoms: _75  and  _77
REMARK   33  A    between atoms: _77  and  _78
REMARK   34  A    between atoms: _77  and  _80
REMARK   35  A    between atoms: _80  and  _81
REMARK   36  A    between atoms: _87  and  _89
REMARK   37  A    between atoms: _89  and  _90
REMARK   38  A    between atoms: _89  and  _92
REMARK   39  A    between atoms: _92  and  _93
REMARK   40  A    between atoms: _96  and  _98
REMARK   41  A    between atoms: _98  and  _99
REMARK   42  A    between atoms: _98  and  _101
REMARK   43  A    between atoms: _101  and  _102
REMARK   44  A    between atoms: _105  and  _107
REMARK   45  A    between atoms: _107  and  _108
REMARK   46  A    between atoms: _110  and  _112
REMARK   47  A    between atoms: _112  and  _113
REMARK   48  A    between atoms: _112  and  _115
REMARK   49  A    between atoms: _115  and  _116
REMARK   50  A    between atoms: _118  and  _120
REMARK   51  A    between atoms: _120  and  _121
REMARK   52  A    between atoms: _120  and  _123
REMARK   53  A    between atoms: _123  and  _124
REMARK   54  A    between atoms: _126  and  _128
REMARK   55  A    between atoms: _128  and  _129
REMARK   56  A    between atoms: _128  and  _131
REMARK   57  A    between atoms: _131  and  _132
REMARK   58  A    between atoms: _135  and  _137
REMARK   59  A    between atoms: _137  and  _138
REMARK   60  A    between atoms: _137  and  _140
REMARK   61  A    between atoms: _140  and  _141
REMARK   62  A    between atoms: _151  and  _153
REMARK   63  A    between atoms: _153  and  _154
REMARK   64  A    between atoms: _153  and  _156
REMARK   65  A    between atoms: _156  and  _157
REMARK   66  A    between atoms: _159  and  _161
REMARK   67  A    between atoms: _161  and  _162
REMARK   68  A    between atoms: _161  and  _164
REMARK   69  A    between atoms: _164  and  _165
REMARK   70  A    between atoms: _168  and  _170
REMARK   71  A    between atoms: _170  and  _171
REMARK   72  A    between atoms: _170  and  _173
REMARK   73  A    between atoms: _173  and  _174
REMARK   74  A    between atoms: _176  and  _178
REMARK   75  A    between atoms: _178  and  _179
REMARK   76  A    between atoms: _178  and  _181
REMARK   77  A    between atoms: _181  and  _182
REMARK   78  A    between atoms: _187  and  _188
REMARK   79  A    between atoms: _190  and  _192
REMARK   80  A    between atoms: _192  and  _193
REMARK   81  A    between atoms: _195  and  _197
REMARK   82  A    between atoms: _197  and  _198
REMARK   83  A    between atoms: _197  and  _200
REMARK   84  A    between atoms: _200  and  _201
REMARK   85  A    between atoms: _204  and  _206
REMARK   86  A    between atoms: _206  and  _207
REMARK   87  A    between atoms: _209  and  _211
REMARK   88  A    between atoms: _211  and  _212
REMARK   89  A    between atoms: _211  and  _214
REMARK   90  A    between atoms: _214  and  _215
REMARK   91  A    between atoms: _217  and  _219
REMARK   92  A    between atoms: _219  and  _220
REMARK   93  A    between atoms: _219  and  _222
REMARK   94  A    between atoms: _222  and  _223
REMARK   95  A    between atoms: _225  and  _227
REMARK   96  A    between atoms: _227  and  _228
REMARK   97  A    between atoms: _227  and  _230
REMARK   98  A    between atoms: _230  and  _231
REMARK   99  A    between atoms: _233  and  _235
REMARK  100  A    between atoms: _235  and  _236
REMARK  101  A    between atoms: _235  and  _238
REMARK  102  A    between atoms: _238  and  _239
REMARK  103  A    between atoms: _241  and  _243
REMARK  104  A    between atoms: _243  and  _244
REMARK  105  A    between atoms: _243  and  _246
REMARK  106  A    between atoms: _246  and  _247
REMARK  107  A    between atoms: _253  and  _255
REMARK  108  A    between atoms: _255  and  _256
REMARK  109  A    between atoms: _255  and  _258
REMARK  110  A    between atoms: _258  and  _259
REMARK  111  A    between atoms: _259  and  _260
REMARK  112  A    between atoms: _263  and  _265
REMARK  113  A    between atoms: _265  and  _266
REMARK  114  A    between atoms: _265  and  _268
REMARK  115  A    between atoms: _268  and  _269
REMARK  116  A    between atoms: _272  and  _274
REMARK  117  A    between atoms: _274  and  _275
REMARK  118  A    between atoms: _274  and  _277
REMARK  119  A    between atoms: _277  and  _278
REMARK  120  A    between atoms: _280  and  _282
REMARK  121  A    between atoms: _282  and  _283
REMARK  122  A    between atoms: _282  and  _285
REMARK  123  A    between atoms: _285  and  _286
REMARK  124  A    between atoms: _289  and  _291
REMARK  125  A    between atoms: _291  and  _292
REMARK  126  A    between atoms: _291  and  _294
REMARK  127  A    between atoms: _294  and  _295
REMARK  128  A    between atoms: _298  and  _300
REMARK  129  A    between atoms: _300  and  _301
REMARK  130  A    between atoms: _303  and  _305
REMARK  131  A    between atoms: _305  and  _306
REMARK  132  A    between atoms: _305  and  _308
REMARK  133  A    between atoms: _308  and  _309
REMARK  134  A    between atoms: _312  and  _314
REMARK  135  A    between atoms: _314  and  _315
REMARK  136  A    between atoms: _314  and  _317
REMARK  137  A    between atoms: _317  and  _318
REMARK  138  A    between atoms: _321  and  _323
REMARK  139  A    between atoms: _323  and  _324
REMARK  140  A    between atoms: _323  and  _326
REMARK  141  A    between atoms: _326  and  _327
REMARK  142  A    between atoms: _330  and  _332
REMARK  143  A    between atoms: _332  and  _333
REMARK  144  A    between atoms: _336  and  _338
REMARK  145  A    between atoms: _338  and  _339
REMARK  146  A    between atoms: _338  and  _341
REMARK  147  A    between atoms: _341  and  _342
REMARK  148  A    between atoms: _348  and  _350
REMARK  149  A    between atoms: _350  and  _351
REMARK  150  A    between atoms: _350  and  _353
REMARK  151  A    between atoms: _353  and  _354
REMARK  152  A    between atoms: _356  and  _358
REMARK  153  A    between atoms: _358  and  _359
REMARK  154  A    between atoms: _358  and  _361
REMARK  155  A    between atoms: _361  and  _362
REMARK  156  A    between atoms: _365  and  _367
REMARK  157  A    between atoms: _367  and  _368
REMARK  158  A    between atoms: _367  and  _370
REMARK  159  A    between atoms: _370  and  _371
REMARK  160  A    between atoms: _374  and  _376
REMARK  161  A    between atoms: _376  and  _377
REMARK  162  A    between atoms: _376  and  _379
REMARK  163  A    between atoms: _379  and  _380
REMARK  164  A    between atoms: _385  and  _387
REMARK  165  A    between atoms: _387  and  _388
REMARK  166  A    between atoms: _387  and  _390
REMARK  167  A    between atoms: _390  and  _391
REMARK  168  A    between atoms: _394  and  _396
REMARK  169  A    between atoms: _396  and  _397
REMARK  170  A    between atoms: _396  and  _399
REMARK  171  A    between atoms: _402  and  _404
REMARK  172  A    between atoms: _404  and  _405
REMARK  173  A    between atoms: _404  and  _407
REMARK  174  A    between atoms: _407  and  _408
REMARK  175  A    between atoms: _408  and  _409
REMARK  176  A    between atoms: _414  and  _416
REMARK  177  A    between atoms: _416  and  _417
REMARK  178  A    between atoms: _416  and  _419
REMARK  179  A    between atoms: _419  and  _420
REMARK  180  A    between atoms: _420  and  _421
REMARK  181  A    between atoms: _426  and  _428
REMARK  182  A    between atoms: _428  and  _429
REMARK  183  A    between atoms: _428  and  _431
REMARK  184  A    between atoms: _431  and  _432
REMARK  185  A    between atoms: _438  and  _440
REMARK  186  A    between atoms: _440  and  _441
REMARK  187  A    between atoms: _440  and  _443
REMARK  188  A    between atoms: _443  and  _444
REMARK  189  A    between atoms: _454  and  _456
REMARK  190  A    between atoms: _456  and  _457
REMARK  191  A    between atoms: _459  and  _461
REMARK  192  A    between atoms: _461  and  _462
REMARK  193  A    between atoms: _461  and  _464
REMARK  194  A    between atoms: _464  and  _465
REMARK  195  A    between atoms: _468  and  _470
REMARK  196  A    between atoms: _470  and  _471
REMARK  197  A    between atoms: _474  and  _476
REMARK  198  A    between atoms: _476  and  _477
REMARK  199  A    between atoms: _476  and  _479
REMARK  200  A    between atoms: _479  and  _480
REMARK  201  A    between atoms: _483  and  _485
REMARK  202  A    between atoms: _485  and  _486
REMARK  203  A    between atoms: _485  and  _488
REMARK  204  A    between atoms: _488  and  _489
REMARK  205  A    between atoms: _492  and  _494
REMARK  206  A    between atoms: _494  and  _495
REMARK  207  A    between atoms: _497  and  _499
REMARK  208  A    between atoms: _499  and  _500
REMARK  209  A    between atoms: _499  and  _502
REMARK  210  A    between atoms: _502  and  _503
REMARK  211  A    between atoms: _506  and  _508
REMARK  212  A    between atoms: _508  and  _509
REMARK  213  A    between atoms: _508  and  _511
REMARK  214  A    between atoms: _511  and  _512
REMARK  215  A    between atoms: _515  and  _517
REMARK  216  A    between atoms: _517  and  _518
REMARK  217  A    between atoms: _517  and  _520
REMARK  218  A    between atoms: _520  and  _521
REMARK  219  A    between atoms: _524  and  _526
REMARK  220  A    between atoms: _526  and  _527
REMARK  221  A    between atoms: _526  and  _529
REMARK  222  A    between atoms: _529  and  _530
REMARK  223  A    between atoms: _533  and  _535
REMARK  224  A    between atoms: _535  and  _536
REMARK  225  A    between atoms: _535  and  _538
REMARK  226  A    between atoms: _538  and  _539
REMARK  227  A    between atoms: _544  and  _545
REMARK  228  A    between atoms: _547  and  _549
REMARK  229  A    between atoms: _549  and  _550
REMARK  230  A    between atoms: _549  and  _552
REMARK  231  A    between atoms: _555  and  _557
REMARK  232  A    between atoms: _557  and  _558
REMARK  233  A    between atoms: _560  and  _562
REMARK  234  A    between atoms: _562  and  _563
REMARK  235  A    between atoms: _562  and  _565
REMARK  236  A    between atoms: _565  and  _566
REMARK  237  A    between atoms: _572  and  _574
REMARK  238  A    between atoms: _574  and  _575
REMARK  239  A    between atoms: _574  and  _577
REMARK  240  A    between atoms: _577  and  _578
REMARK  241  A    between atoms: _584  and  _586
REMARK  242  A    between atoms: _586  and  _587
REMARK  243  A    between atoms: _589  and  _591
REMARK  244  A    between atoms: _591  and  _592
REMARK  245  A    between atoms: _594  and  _596
REMARK  246  A    between atoms: _596  and  _597
REMARK  247  A    between atoms: _596  and  _599
REMARK  248  A    between atoms: _599  and  _600
REMARK  249  A    between atoms: _600  and  _601
REMARK  250  A    between atoms: _606  and  _608
REMARK  251  A    between atoms: _608  and  _609
REMARK  252  A    between atoms: _608  and  _611
REMARK  253  A    between atoms: _611  and  _612
REMARK  254  A    between atoms: _614  and  _616
REMARK  255  A    between atoms: _616  and  _617
REMARK  256  A    between atoms: _619  and  _621
REMARK  257  A    between atoms: _621  and  _622
REMARK  258  A    between atoms: _621  and  _624
REMARK  259  A    between atoms: _624  and  _625
REMARK  260  A    between atoms: _628  and  _630
REMARK  261  A    between atoms: _630  and  _631
REMARK  262  A    between atoms: _633  and  _635
REMARK  263  A    between atoms: _635  and  _636
REMARK  264  A    between atoms: _635  and  _638
REMARK  265  A    between atoms: _638  and  _639
REMARK  266  A    between atoms: _642  and  _644
REMARK  267  A    between atoms: _644  and  _645
REMARK  268  A    between atoms: _644  and  _647
REMARK  269  A    between atoms: _647  and  _648
REMARK  270  A    between atoms: _653  and  _655
REMARK  271  A    between atoms: _655  and  _656
REMARK  272  A    between atoms: _655  and  _658
REMARK  273  A    between atoms: _658  and  _659
REMARK  274  A    between atoms: _662  and  _664
REMARK  275  A    between atoms: _664  and  _665
REMARK  276  A    between atoms: _664  and  _667
REMARK  277  A    between atoms: _667  and  _668
REMARK  278  A    between atoms: _674  and  _676
REMARK  279  A    between atoms: _676  and  _677
REMARK  280  A    between atoms: _679  and  _681
REMARK  281  A    between atoms: _681  and  _682
REMARK  282  A    between atoms: _681  and  _684
REMARK  283  A    between atoms: _684  and  _685
REMARK                            x       y       z     vdW  Elec       q    Type
REMARK                         _______ _______ _______ _____ _____    ______ ____
ROOT
ATOM      1  O   HOH     1      12.676  33.147  23.751  0.00  0.00    +0.000 OA
ENDROOT
TORSDOF 0
REMARK  Name = ../refined-set-2016/5er2/5er2_pocket.pdb
REMARK  283 active torsions:
REMARK  status: ('A' for Active; 'I' for Inactive)
REMARK    1  A    between atoms: _1  and  _3
REMARK    2  A    between atoms: _3  and  _4
REMARK    3  A    between atoms: _3  and  _6
REMARK    4  A    between atoms: _6  and  _7
REMARK    5  A    between atoms: _10  and  _12
REMARK    6  A    between atoms: _12  and  _13
REMARK    7  A    between atoms: _12  and  _15
REMARK    8  A    between atoms: _15  and  _16
REMARK    9  A    between atoms: _19  and  _21
REMARK   10  A    between atoms: _21  and  _22
REMARK   11  A    between atoms: _21  and  _24
REMARK   12  A    between atoms: _24  and  _25
REMARK   13  A    between atoms: _28  and  _30
REMARK   14  A    between atoms: _30  and  _31
REMARK   15  A    between atoms: _30  and  _33
REMARK   16  A    between atoms: _33  and  _34
REMARK   17  A    between atoms: _37  and  _39
REMARK   18  A    between atoms: _39  and  _40
REMARK   19  A    between atoms: _39  and  _42
REMARK   20  A    between atoms: _42  and  _43
REMARK   21  A    between atoms: _46  and  _48
REMARK   22  A    between atoms: _48  and  _49
REMARK   23  A    between atoms: _52  and  _54
REMARK   24  A    between atoms: _54  and  _55
REMARK   25  A    between atoms: _54  and  _57
REMARK   26  A    between atoms: _57  and  _58
REMARK   27  A    between atoms: _63  and  _64
REMARK   28  A    between atoms: _66  and  _68
REMARK   29  A    between atoms: _68  and  _69
REMARK   30  A    between atoms: _68  and  _71
REMARK   31  A    between atoms: _71  and  _72
REMARK   32  A    between atoms: _75  and  _77
REMARK   33  A    between atoms: _77  and  _78
REMARK   34  A    between atoms: _77  and  _80
REMARK   35  A    between atoms: _80  and  _81
REMARK   36  A    between atoms: _87  and  _89
REMARK   37  A    between atoms: _89  and  _90
REMARK   38  A    between atoms: _89  and  _92
REMARK   39  A    between atoms: _92  and  _93
REMARK   40  A    between atoms: _96  and  _98
REMARK   41  A    between atoms: _98  and  _99
REMARK   42  A    between atoms: _98  and  _101
REMARK   43  A    between atoms: _101  and  _102
REMARK   44  A    between atoms: _105  and  _107
REMARK   45  A    between atoms: _107  and  _108
REMARK   46  A    between atoms: _110  and  _112
REMARK   47  A    between atoms: _112  and  _113
REMARK   48  A    between atoms: _112  and  _115
REMARK   49  A    between atoms: _115  and  _116
REMARK   50  A    between atoms: _118  and  _120
REMARK   51  A    between atoms: _120  and  _121
REMARK   52  A    between atoms: _120  and  _123
REMARK   53  A    between atoms: _123  and  _124
REMARK   54  A    between atoms: _126  and  _128
REMARK   55  A    between atoms: _128  and  _129
REMARK   56  A    between atoms: _128  and  _131
REMARK   57  A    between atoms: _131  and  _132
REMARK   58  A    between atoms: _135  and  _137
REMARK   59  A    between atoms: _137  and  _138
REMARK   60  A    between atoms: _137  and  _140
REMARK   61  A    between atoms: _140  and  _141
REMARK   62  A    between atoms: _151  and  _153
REMARK   63  A    between atoms: _153  and  _154
REMARK   64  A    between atoms: _153  and  _156
REMARK   65  A    between atoms: _156  and  _157
REMARK   66  A    between atoms: _159  and  _161
REMARK   67  A    between atoms: _161  and  _162
REMARK   68  A    between atoms: _161  and  _164
REMARK   69  A    between atoms: _164  and  _165
REMARK   70  A    between atoms: _168  and  _170
REMARK   71  A    between atoms: _170  and  _171
REMARK   72  A    between atoms: _170  and  _173
REMARK   73  A    between atoms: _173  and  _174
REMARK   74  A    between atoms: _176  and  _178
REMARK   75  A    between atoms: _178  and  _179
REMARK   76  A    between atoms: _178  and  _181
REMARK   77  A    between atoms: _181  and  _182
REMARK   78  A    between atoms: _187  and  _188
REMARK   79  A    between atoms: _190  and  _192
REMARK   80  A    between atoms: _192  and  _193
REMARK   81  A    between atoms: _195  and  _197
REMARK   82  A    between atoms: _197  and  _198
REMARK   83  A    between atoms: _197  and  _200
REMARK   84  A    between atoms: _200  and  _201
REMARK   85  A    between atoms: _204  and  _206
REMARK   86  A    between atoms: _206  and  _207
REMARK   87  A    between atoms: _209  and  _211
REMARK   88  A    between atoms: _211  and  _212
REMARK   89  A    between atoms: _211  and  _214
REMARK   90  A    between atoms: _214  and  _215
REMARK   91  A    between atoms: _217  and  _219
REMARK   92  A    between atoms: _219  and  _220
REMARK   93  A    between atoms: _219  and  _222
REMARK   94  A    between atoms: _222  and  _223
REMARK   95  A    between atoms: _225  and  _227
REMARK   96  A    between atoms: _227  and  _228
REMARK   97  A    between atoms: _227  and  _230
REMARK   98  A    between atoms: _230  and  _231
REMARK   99  A    between atoms: _233  and  _235
REMARK  100  A    between atoms: _235  and  _236
REMARK  101  A    between atoms: _235  and  _238
REMARK  102  A    between atoms: _238  and  _239
REMARK  103  A    between atoms: _241  and  _243
REMARK  104  A    between atoms: _243  and  _244
REMARK  105  A    between atoms: _243  and  _246
REMARK  106  A    between atoms: _246  and  _247
REMARK  107  A    between atoms: _253  and  _255
REMARK  108  A    between atoms: _255  and  _256
REMARK  109  A    between atoms: _255  and  _258
REMARK  110  A    between atoms: _258  and  _259
REMARK  111  A    between atoms: _259  and  _260
REMARK  112  A    between atoms: _263  and  _265
REMARK  113  A    between atoms: _265  and  _266
REMARK  114  A    between atoms: _265  and  _268
REMARK  115  A    between atoms: _268  and  _269
REMARK  116  A    between atoms: _272  and  _274
REMARK  117  A    between atoms: _274  and  _275
REMARK  118  A    between atoms: _274  and  _277
REMARK  119  A    between atoms: _277  and  _278
REMARK  120  A    between atoms: _280  and  _282
REMARK  121  A    between atoms: _282  and  _283
REMARK  122  A    between atoms: _282  and  _285
REMARK  123  A    between atoms: _285  and  _286
REMARK  124  A    between atoms: _289  and  _291
REMARK  125  A    between atoms: _291  and  _292
REMARK  126  A    between atoms: _291  and  _294
REMARK  127  A    between atoms: _294  and  _295
REMARK  128  A    between atoms: _298  and  _300
REMARK  129  A    between atoms: _300  and  _301
REMARK  130  A    between atoms: _303  and  _305
REMARK  131  A    between atoms: _305  and  _306
REMARK  132  A    between atoms: _305  and  _308
REMARK  133  A    between atoms: _308  and  _309
REMARK  134  A    between atoms: _312  and  _314
REMARK  135  A    between atoms: _314  and  _315
REMARK  136  A    between atoms: _314  and  _317
REMARK  137  A    between atoms: _317  and  _318
REMARK  138  A    between atoms: _321  and  _323
REMARK  139  A    between atoms: _323  and  _324
REMARK  140  A    between atoms: _323  and  _326
REMARK  141  A    between atoms: _326  and  _327
REMARK  142  A    between atoms: _330  and  _332
REMARK  143  A    between atoms: _332  and  _333
REMARK  144  A    between atoms: _336  and  _338
REMARK  145  A    between atoms: _338  and  _339
REMARK  146  A    between atoms: _338  and  _341
REMARK  147  A    between atoms: _341  and  _342
REMARK  148  A    between atoms: _348  and  _350
REMARK  149  A    between atoms: _350  and  _351
REMARK  150  A    between atoms: _350  and  _353
REMARK  151  A    between atoms: _353  and  _354
REMARK  152  A    between atoms: _356  and  _358
REMARK  153  A    between atoms: _358  and  _359
REMARK  154  A    between atoms: _358  and  _361
REMARK  155  A    between atoms: _361  and  _362
REMARK  156  A    between atoms: _365  and  _367
REMARK  157  A    between atoms: _367  and  _368
REMARK  158  A    between atoms: _367  and  _370
REMARK  159  A    between atoms: _370  and  _371
REMARK  160  A    between atoms: _374  and  _376
REMARK  161  A    between atoms: _376  and  _377
REMARK  162  A    between atoms: _376  and  _379
REMARK  163  A    between atoms: _379  and  _380
REMARK  164  A    between atoms: _385  and  _387
REMARK  165  A    between atoms: _387  and  _388
REMARK  166  A    between atoms: _387  and  _390
REMARK  167  A    between atoms: _390  and  _391
REMARK  168  A    between atoms: _394  and  _396
REMARK  169  A    between atoms: _396  and  _397
REMARK  170  A    between atoms: _396  and  _399
REMARK  171  A    between atoms: _402  and  _404
REMARK  172  A    between atoms: _404  and  _405
REMARK  173  A    between atoms: _404  and  _407
REMARK  174  A    between atoms: _407  and  _408
REMARK  175  A    between atoms: _408  and  _409
REMARK  176  A    between atoms: _414  and  _416
REMARK  177  A    between atoms: _416  and  _417
REMARK  178  A    between atoms: _416  and  _419
REMARK  179  A    between atoms: _419  and  _420
REMARK  180  A    between atoms: _420  and  _421
REMARK  181  A    between atoms: _426  and  _428
REMARK  182  A    between atoms: _428  and  _429
REMARK  183  A    between atoms: _428  and  _431
REMARK  184  A    between atoms: _431  and  _432
REMARK  185  A    between atoms: _438  and  _440
REMARK  186  A    between atoms: _440  and  _441
REMARK  187  A    between atoms: _440  and  _443
REMARK  188  A    between atoms: _443  and  _444
REMARK  189  A    between atoms: _454  and  _456
REMARK  190  A    between atoms: _456  and  _457
REMARK  191  A    between atoms: _459  and  _461
REMARK  192  A    between atoms: _461  and  _462
REMARK  193  A    between atoms: _461  and  _464
REMARK  194  A    between atoms: _464  and  _465
REMARK  195  A    between atoms: _468  and  _470
REMARK  196  A    between atoms: _470  and  _471
REMARK  197  A    between atoms: _474  and  _476
REMARK  198  A    between atoms: _476  and  _477
REMARK  199  A    between atoms: _476  and  _479
REMARK  200  A    between atoms: _479  and  _480
REMARK  201  A    between atoms: _483  and  _485
REMARK  202  A    between atoms: _485  and  _486
REMARK  203  A    between atoms: _485  and  _488
REMARK  204  A    between atoms: _488  and  _489
REMARK  205  A    between atoms: _492  and  _494
REMARK  206  A    between atoms: _494  and  _495
REMARK  207  A    between atoms: _497  and  _499
REMARK  208  A    between atoms: _499  and  _500
REMARK  209  A    between atoms: _499  and  _502
REMARK  210  A    between atoms: _502  and  _503
REMARK  211  A    between atoms: _506  and  _508
REMARK  212  A    between atoms: _508  and  _509
REMARK  213  A    between atoms: _508  and  _511
REMARK  214  A    between atoms: _511  and  _512
REMARK  215  A    between atoms: _515  and  _517
REMARK  216  A    between atoms: _517  and  _518
REMARK  217  A    between atoms: _517  and  _520
REMARK  218  A    between atoms: _520  and  _521
REMARK  219  A    between atoms: _524  and  _526
REMARK  220  A    between atoms: _526  and  _527
REMARK  221  A    between atoms: _526  and  _529
REMARK  222  A    between atoms: _529  and  _530
REMARK  223  A    between atoms: _533  and  _535
REMARK  224  A    between atoms: _535  and  _536
REMARK  225  A    between atoms: _535  and  _538
REMARK  226  A    between atoms: _538  and  _539
REMARK  227  A    between atoms: _544  and  _545
REMARK  228  A    between atoms: _547  and  _549
REMARK  229  A    between atoms: _549  and  _550
REMARK  230  A    between atoms: _549  and  _552
REMARK  231  A    between atoms: _555  and  _557
REMARK  232  A    between atoms: _557  and  _558
REMARK  233  A    between atoms: _560  and  _562
REMARK  234  A    between atoms: _562  and  _563
REMARK  235  A    between atoms: _562  and  _565
REMARK  236  A    between atoms: _565  and  _566
REMARK  237  A    between atoms: _572  and  _574
REMARK  238  A    between atoms: _574  and  _575
REMARK  239  A    between atoms: _574  and  _577
REMARK  240  A    between atoms: _577  and  _578
REMARK  241  A    between atoms: _584  and  _586
REMARK  242  A    between atoms: _586  and  _587
REMARK  243  A    between atoms: _589  and  _591
REMARK  244  A    between atoms: _591  and  _592
REMARK  245  A    between atoms: _594  and  _596
REMARK  246  A    between atoms: _596  and  _597
REMARK  247  A    between atoms: _596  and  _599
REMARK  248  A    between atoms: _599  and  _600
REMARK  249  A    between atoms: _600  and  _601
REMARK  250  A    between atoms: _606  and  _608
REMARK  251  A    between atoms: _608  and  _609
REMARK  252  A    between atoms: _608  and  _611
REMARK  253  A    between atoms: _611  and  _612
REMARK  254  A    between atoms: _614  and  _616
REMARK  255  A    between atoms: _616  and  _617
REMARK  256  A    between atoms: _619  and  _621
REMARK  257  A    between atoms: _621  and  _622
REMARK  258  A    between atoms: _621  and  _624
REMARK  259  A    between atoms: _624  and  _625
REMARK  260  A    between atoms: _628  and  _630
REMARK  261  A    between atoms: _630  and  _631
REMARK  262  A    between atoms: _633  and  _635
REMARK  263  A    between atoms: _635  and  _636
REMARK  264  A    between atoms: _635  and  _638
REMARK  265  A    between atoms: _638  and  _639
REMARK  266  A    between atoms: _642  and  _644
REMARK  267  A    between atoms: _644  and  _645
REMARK  268  A    between atoms: _644  and  _647
REMARK  269  A    between atoms: _647  and  _648
REMARK  270  A    between atoms: _653  and  _655
REMARK  271  A    between atoms: _655  and  _656
REMARK  272  A    between atoms: _655  and  _658
REMARK  273  A    between atoms: _658  and  _659
REMARK  274  A    between atoms: _662  and  _664
REMARK  275  A    between atoms: _664  and  _665
REMARK  276  A    between atoms: _664  and  _667
REMARK  277  A    between atoms: _667  and  _668
REMARK  278  A    between atoms: _674  and  _676
REMARK  279  A    between atoms: _676  and  _677
REMARK  280  A    between atoms: _679  and  _681
REMARK  281  A    between atoms: _681  and  _682
REMARK  282  A    between atoms: _681  and  _684
REMARK  283  A    between atoms: _684  and  _685
REMARK                            x       y       z     vdW  Elec       q    Type
REMARK                         _______ _______ _______ _____ _____    ______ ____
ROOT
ATOM      1  O   HOH     1       4.755  33.511   5.321  0.00  0.00    +0.000 OA
ENDROOT
TORSDOF 0
REMARK  Name = ../refined-set-2016/5er2/5er2_pocket.pdb
REMARK  283 active torsions:
REMARK  status: ('A' for Active; 'I' for Inactive)
REMARK    1  A    between atoms: _1  and  _3
REMARK    2  A    between atoms: _3  and  _4
REMARK    3  A    between atoms: _3  and  _6
REMARK    4  A    between atoms: _6  and  _7
REMARK    5  A    between atoms: _10  and  _12
REMARK    6  A    between atoms: _12  and  _13
REMARK    7  A    between atoms: _12  and  _15
REMARK    8  A    between atoms: _15  and  _16
REMARK    9  A    between atoms: _19  and  _21
REMARK   10  A    between atoms: _21  and  _22
REMARK   11  A    between atoms: _21  and  _24
REMARK   12  A    between atoms: _24  and  _25
REMARK   13  A    between atoms: _28  and  _30
REMARK   14  A    between atoms: _30  and  _31
REMARK   15  A    between atoms: _30  and  _33
REMARK   16  A    between atoms: _33  and  _34
REMARK   17  A    between atoms: _37  and  _39
REMARK   18  A    between atoms: _39  and  _40
REMARK   19  A    between atoms: _39  and  _42
REMARK   20  A    between atoms: _42  and  _43
REMARK   21  A    between atoms: _46  and  _48
REMARK   22  A    between atoms: _48  and  _49
REMARK   23  A    between atoms: _52  and  _54
REMARK   24  A    between atoms: _54  and  _55
REMARK   25  A    between atoms: _54  and  _57
REMARK   26  A    between atoms: _57  and  _58
REMARK   27  A    between atoms: _63  and  _64
REMARK   28  A    between atoms: _66  and  _68
REMARK   29  A    between atoms: _68  and  _69
REMARK   30  A    between atoms: _68  and  _71
REMARK   31  A    between atoms: _71  and  _72
REMARK   32  A    between atoms: _75  and  _77
REMARK   33  A    between atoms: _77  and  _78
REMARK   34  A    between atoms: _77  and  _80
REMARK   35  A    between atoms: _80  and  _81
REMARK   36  A    between atoms: _87  and  _89
REMARK   37  A    between atoms: _89  and  _90
REMARK   38  A    between atoms: _89  and  _92
REMARK   39  A    between atoms: _92  and  _93
REMARK   40  A    between atoms: _96  and  _98
REMARK   41  A    between atoms: _98  and  _99
REMARK   42  A    between atoms: _98  and  _101
REMARK   43  A    between atoms: _101  and  _102
REMARK   44  A    between atoms: _105  and  _107
REMARK   45  A    between atoms: _107  and  _108
REMARK   46  A    between atoms: _110  and  _112
REMARK   47  A    between atoms: _112  and  _113
REMARK   48  A    between atoms: _112  and  _115
REMARK   49  A    between atoms: _115  and  _116
REMARK   50  A    between atoms: _118  and  _120
REMARK   51  A    between atoms: _120  and  _121
REMARK   52  A    between atoms: _120  and  _123
REMARK   53  A    between atoms: _123  and  _124
REMARK   54  A    between atoms: _126  and  _128
REMARK   55  A    between atoms: _128  and  _129
REMARK   56  A    between atoms: _128  and  _131
REMARK   57  A    between atoms: _131  and  _132
REMARK   58  A    between atoms: _135  and  _137
REMARK   59  A    between atoms: _137  and  _138
REMARK   60  A    between atoms: _137  and  _140
REMARK   61  A    between atoms: _140  and  _141
REMARK   62  A    between atoms: _151  and  _153
REMARK   63  A    between atoms: _153  and  _154
REMARK   64  A    between atoms: _153  and  _156
REMARK   65  A    between atoms: _156  and  _157
REMARK   66  A    between atoms: _159  and  _161
REMARK   67  A    between atoms: _161  and  _162
REMARK   68  A    between atoms: _161  and  _164
REMARK   69  A    between atoms: _164  and  _165
REMARK   70  A    between atoms: _168  and  _170
REMARK   71  A    between atoms: _170  and  _171
REMARK   72  A    between atoms: _170  and  _173
REMARK   73  A    between atoms: _173  and  _174
REMARK   74  A    between atoms: _176  and  _178
REMARK   75  A    between atoms: _178  and  _179
REMARK   76  A    between atoms: _178  and  _181
REMARK   77  A    between atoms: _181  and  _182
REMARK   78  A    between atoms: _187  and  _188
REMARK   79  A    between atoms: _190  and  _192
REMARK   80  A    between atoms: _192  and  _193
REMARK   81  A    between atoms: _195  and  _197
REMARK   82  A    between atoms: _197  and  _198
REMARK   83  A    between atoms: _197  and  _200
REMARK   84  A    between atoms: _200  and  _201
REMARK   85  A    between atoms: _204  and  _206
REMARK   86  A    between atoms: _206  and  _207
REMARK   87  A    between atoms: _209  and  _211
REMARK   88  A    between atoms: _211  and  _212
REMARK   89  A    between atoms: _211  and  _214
REMARK   90  A    between atoms: _214  and  _215
REMARK   91  A    between atoms: _217  and  _219
REMARK   92  A    between atoms: _219  and  _220
REMARK   93  A    between atoms: _219  and  _222
REMARK   94  A    between atoms: _222  and  _223
REMARK   95  A    between atoms: _225  and  _227
REMARK   96  A    between atoms: _227  and  _228
REMARK   97  A    between atoms: _227  and  _230
REMARK   98  A    between atoms: _230  and  _231
REMARK   99  A    between atoms: _233  and  _235
REMARK  100  A    between atoms: _235  and  _236
REMARK  101  A    between atoms: _235  and  _238
REMARK  102  A    between atoms: _238  and  _239
REMARK  103  A    between atoms: _241  and  _243
REMARK  104  A    between atoms: _243  and  _244
REMARK  105  A    between atoms: _243  and  _246
REMARK  106  A    between atoms: _246  and  _247
REMARK  107  A    between atoms: _253  and  _255
REMARK  108  A    between atoms: _255  and  _256
REMARK  109  A    between atoms: _255  and  _258
REMARK  110  A    between atoms: _258  and  _259
REMARK  111  A    between atoms: _259  and  _260
REMARK  112  A    between atoms: _263  and  _265
REMARK  113  A    between atoms: _265  and  _266
REMARK  114  A    between atoms: _265  and  _268
REMARK  115  A    between atoms: _268  and  _269
REMARK  116  A    between atoms: _272  and  _274
REMARK  117  A    between atoms: _274  and  _275
REMARK  118  A    between atoms: _274  and  _277
REMARK  119  A    between atoms: _277  and  _278
REMARK  120  A    between atoms: _280  and  _282
REMARK  121  A    between atoms: _282  and  _283
REMARK  122  A    between atoms: _282  and  _285
REMARK  123  A    between atoms: _285  and  _286
REMARK  124  A    between atoms: _289  and  _291
REMARK  125  A    between atoms: _291  and  _292
REMARK  126  A    between atoms: _291  and  _294
REMARK  127  A    between atoms: _294  and  _295
REMARK  128  A    between atoms: _298  and  _300
REMARK  129  A    between atoms: _300  and  _301
REMARK  130  A    between atoms: _303  and  _305
REMARK  131  A    between atoms: _305  and  _306
REMARK  132  A    between atoms: _305  and  _308
REMARK  133  A    between atoms: _308  and  _309
REMARK  134  A    between atoms: _312  and  _314
REMARK  135  A    between atoms: _314  and  _315
REMARK  136  A    between atoms: _314  and  _317
REMARK  137  A    between atoms: _317  and  _318
REMARK  138  A    between atoms: _321  and  _323
REMARK  139  A    between atoms: _323  and  _324
REMARK  140  A    between atoms: _323  and  _326
REMARK  141  A    between atoms: _326  and  _327
REMARK  142  A    between atoms: _330  and  _332
REMARK  143  A    between atoms: _332  and  _333
REMARK  144  A    between atoms: _336  and  _338
REMARK  145  A    between atoms: _338  and  _339
REMARK  146  A    between atoms: _338  and  _341
REMARK  147  A    between atoms: _341  and  _342
REMARK  148  A    between atoms: _348  and  _350
REMARK  149  A    between atoms: _350  and  _351
REMARK  150  A    between atoms: _350  and  _353
REMARK  151  A    between atoms: _353  and  _354
REMARK  152  A    between atoms: _356  and  _358
REMARK  153  A    between atoms: _358  and  _359
REMARK  154  A    between atoms: _358  and  _361
REMARK  155  A    between atoms: _361  and  _362
REMARK  156  A    between atoms: _365  and  _367
REMARK  157  A    between atoms: _367  and  _368
REMARK  158  A    between atoms: _367  and  _370
REMARK  159  A    between atoms: _370  and  _371
REMARK  160  A    between atoms: _374  and  _376
REMARK  161  A    between atoms: _376  and  _377
REMARK  162  A    between atoms: _376  and  _379
REMARK  163  A    between atoms: _379  and  _380
REMARK  164  A    between atoms: _385  and  _387
REMARK  165  A    between atoms: _387  and  _388
REMARK  166  A    between atoms: _387  and  _390
REMARK  167  A    between atoms: _390  and  _391
REMARK  168  A    between atoms: _394  and  _396
REMARK  169  A    between atoms: _396  and  _397
REMARK  170  A    between atoms: _396  and  _399
REMARK  171  A    between atoms: _402  and  _404
REMARK  172  A    between atoms: _404  and  _405
REMARK  173  A    between atoms: _404  and  _407
REMARK  174  A    between atoms: _407  and  _408
REMARK  175  A    between atoms: _408  and  _409
REMARK  176  A    between atoms: _414  and  _416
REMARK  177  A    between atoms: _416  and  _417
REMARK  178  A    between atoms: _416  and  _419
REMARK  179  A    between atoms: _419  and  _420
REMARK  180  A    between atoms: _420  and  _421
REMARK  181  A    between atoms: _426  and  _428
REMARK  182  A    between atoms: _428  and  _429
REMARK  183  A    between atoms: _428  and  _431
REMARK  184  A    between atoms: _431  and  _432
REMARK  185  A    between atoms: _438  and  _440
REMARK  186  A    between atoms: _440  and  _441
REMARK  187  A    between atoms: _440  and  _443
REMARK  188  A    between atoms: _443  and  _444
REMARK  189  A    between atoms: _454  and  _456
REMARK  190  A    between atoms: _456  and  _457
REMARK  191  A    between atoms: _459  and  _461
REMARK  192  A    between atoms: _461  and  _462
REMARK  193  A    between atoms: _461  and  _464
REMARK  194  A    between atoms: _464  and  _465
REMARK  195  A    between atoms: _468  and  _470
REMARK  196  A    between atoms: _470  and  _471
REMARK  197  A    between atoms: _474  and  _476
REMARK  198  A    between atoms: _476  and  _477
REMARK  199  A    between atoms: _476  and  _479
REMARK  200  A    between atoms: _479  and  _480
REMARK  201  A    between atoms: _483  and  _485
REMARK  202  A    between atoms: _485  and  _486
REMARK  203  A    between atoms: _485  and  _488
REMARK  204  A    between atoms: _488  and  _489
REMARK  205  A    between atoms: _492  and  _494
REMARK  206  A    between atoms: _494  and  _495
REMARK  207  A    between atoms: _497  and  _499
REMARK  208  A    between atoms: _499  and  _500
REMARK  209  A    between atoms: _499  and  _502
REMARK  210  A    between atoms: _502  and  _503
REMARK  211  A    between atoms: _506  and  _508
REMARK  212  A    between atoms: _508  and  _509
REMARK  213  A    between atoms: _508  and  _511
REMARK  214  A    between atoms: _511  and  _512
REMARK  215  A    between atoms: _515  and  _517
REMARK  216  A    between atoms: _517  and  _518
REMARK  217  A    between atoms: _517  and  _520
REMARK  218  A    between atoms: _520  and  _521
REMARK  219  A    between atoms: _524  and  _526
REMARK  220  A    between atoms: _526  and  _527
REMARK  221  A    between atoms: _526  and  _529
REMARK  222  A    between atoms: _529  and  _530
REMARK  223  A    between atoms: _533  and  _535
REMARK  224  A    between atoms: _535  and  _536
REMARK  225  A    between atoms: _535  and  _538
REMARK  226  A    between atoms: _538  and  _539
REMARK  227  A    between atoms: _544  and  _545
REMARK  228  A    between atoms: _547  and  _549
REMARK  229  A    between atoms: _549  and  _550
REMARK  230  A    between atoms: _549  and  _552
REMARK  231  A    between atoms: _555  and  _557
REMARK  232  A    between atoms: _557  and  _558
REMARK  233  A    between atoms: _560  and  _562
REMARK  234  A    between atoms: _562  and  _563
REMARK  235  A    between atoms: _562  and  _565
REMARK  236  A    between atoms: _565  and  _566
REMARK  237  A    between atoms: _572  and  _574
REMARK  238  A    between atoms: _574  and  _575
REMARK  239  A    between atoms: _574  and  _577
REMARK  240  A    between atoms: _577  and  _578
REMARK  241  A    between atoms: _584  and  _586
REMARK  242  A    between atoms: _586  and  _587
REMARK  243  A    between atoms: _589  and  _591
REMARK  244  A    between atoms: _591  and  _592
REMARK  245  A    between atoms: _594  and  _596
REMARK  246  A    between atoms: _596  and  _597
REMARK  247  A    between atoms: _596  and  _599
REMARK  248  A    between atoms: _599  and  _600
REMARK  249  A    between atoms: _600  and  _601
REMARK  250  A    between atoms: _606  and  _608
REMARK  251  A    between atoms: _608  and  _609
REMARK  252  A    between atoms: _608  and  _611
REMARK  253  A    between atoms: _611  and  _612
REMARK  254  A    between atoms: _614  and  _616
REMARK  255  A    between atoms: _616  and  _617
REMARK  256  A    between atoms: _619  and  _621
REMARK  257  A    between atoms: _621  and  _622
REMARK  258  A    between atoms: _621  and  _624
REMARK  259  A    between atoms: _624  and  _625
REMARK  260  A    between atoms: _628  and  _630
REMARK  261  A    between atoms: _630  and  _631
REMARK  262  A    between atoms: _633  and  _635
REMARK  263  A    between atoms: _635  and  _636
REMARK  264  A    between atoms: _635  and  _638
REMARK  265  A    between atoms: _638  and  _639
REMARK  266  A    between atoms: _642  and  _644
REMARK  267  A    between atoms: _644  and  _645
REMARK  268  A    between atoms: _644  and  _647
REMARK  269  A    between atoms: _647  and  _648
REMARK  270  A    between atoms: _653  and  _655
REMARK  271  A    between atoms: _655  and  _656
REMARK  272  A    between atoms: _655  and  _658
REMARK  273  A    between atoms: _658  and  _659
REMARK  274  A    between atoms: _662  and  _664
REMARK  275  A    between atoms: _664  and  _665
REMARK  276  A    between atoms: _664  and  _667
REMARK  277  A    between atoms: _667  and  _668
REMARK  278  A    between atoms: _674  and  _676
REMARK  279  A    between atoms: _676  and  _677
REMARK  280  A    between atoms: _679  and  _681
REMARK  281  A    between atoms: _681  and  _682
REMARK  282  A    between atoms: _681  and  _684
REMARK  283  A    between atoms: _684  and  _685
REMARK                            x       y       z     vdW  Elec       q    Type
REMARK                         _______ _______ _______ _____ _____    ______ ____
ROOT
ATOM      1  O   HOH     1      -8.210  36.161  14.214  0.00  0.00    +0.000 OA
ENDROOT
TORSDOF 0
REMARK  Name = ../refined-set-2016/5er2/5er2_pocket.pdb
REMARK  283 active torsions:
REMARK  status: ('A' for Active; 'I' for Inactive)
REMARK    1  A    between atoms: _1  and  _3
REMARK    2  A    between atoms: _3  and  _4
REMARK    3  A    between atoms: _3  and  _6
REMARK    4  A    between atoms: _6  and  _7
REMARK    5  A    between atoms: _10  and  _12
REMARK    6  A    between atoms: _12  and  _13
REMARK    7  A    between atoms: _12  and  _15
REMARK    8  A    between atoms: _15  and  _16
REMARK    9  A    between atoms: _19  and  _21
REMARK   10  A    between atoms: _21  and  _22
REMARK   11  A    between atoms: _21  and  _24
REMARK   12  A    between atoms: _24  and  _25
REMARK   13  A    between atoms: _28  and  _30
REMARK   14  A    between atoms: _30  and  _31
REMARK   15  A    between atoms: _30  and  _33
REMARK   16  A    between atoms: _33  and  _34
REMARK   17  A    between atoms: _37  and  _39
REMARK   18  A    between atoms: _39  and  _40
REMARK   19  A    between atoms: _39  and  _42
REMARK   20  A    between atoms: _42  and  _43
REMARK   21  A    between atoms: _46  and  _48
REMARK   22  A    between atoms: _48  and  _49
REMARK   23  A    between atoms: _52  and  _54
REMARK   24  A    between atoms: _54  and  _55
REMARK   25  A    between atoms: _54  and  _57
REMARK   26  A    between atoms: _57  and  _58
REMARK   27  A    between atoms: _63  and  _64
REMARK   28  A    between atoms: _66  and  _68
REMARK   29  A    between atoms: _68  and  _69
REMARK   30  A    between atoms: _68  and  _71
REMARK   31  A    between atoms: _71  and  _72
REMARK   32  A    between atoms: _75  and  _77
REMARK   33  A    between atoms: _77  and  _78
REMARK   34  A    between atoms: _77  and  _80
REMARK   35  A    between atoms: _80  and  _81
REMARK   36  A    between atoms: _87  and  _89
REMARK   37  A    between atoms: _89  and  _90
REMARK   38  A    between atoms: _89  and  _92
REMARK   39  A    between atoms: _92  and  _93
REMARK   40  A    between atoms: _96  and  _98
REMARK   41  A    between atoms: _98  and  _99
REMARK   42  A    between atoms: _98  and  _101
REMARK   43  A    between atoms: _101  and  _102
REMARK   44  A    between atoms: _105  and  _107
REMARK   45  A    between atoms: _107  and  _108
REMARK   46  A    between atoms: _110  and  _112
REMARK   47  A    between atoms: _112  and  _113
REMARK   48  A    between atoms: _112  and  _115
REMARK   49  A    between atoms: _115  and  _116
REMARK   50  A    between atoms: _118  and  _120
REMARK   51  A    between atoms: _120  and  _121
REMARK   52  A    between atoms: _120  and  _123
REMARK   53  A    between atoms: _123  and  _124
REMARK   54  A    between atoms: _126  and  _128
REMARK   55  A    between atoms: _128  and  _129
REMARK   56  A    between atoms: _128  and  _131
REMARK   57  A    between atoms: _131  and  _132
REMARK   58  A    between atoms: _135  and  _137
REMARK   59  A    between atoms: _137  and  _138
REMARK   60  A    between atoms: _137  and  _140
REMARK   61  A    between atoms: _140  and  _141
REMARK   62  A    between atoms: _151  and  _153
REMARK   63  A    between atoms: _153  and  _154
REMARK   64  A    between atoms: _153  and  _156
REMARK   65  A    between atoms: _156  and  _157
REMARK   66  A    between atoms: _159  and  _161
REMARK   67  A    between atoms: _161  and  _162
REMARK   68  A    between atoms: _161  and  _164
REMARK   69  A    between atoms: _164  and  _165
REMARK   70  A    between atoms: _168  and  _170
REMARK   71  A    between atoms: _170  and  _171
REMARK   72  A    between atoms: _170  and  _173
REMARK   73  A    between atoms: _173  and  _174
REMARK   74  A    between atoms: _176  and  _178
REMARK   75  A    between atoms: _178  and  _179
REMARK   76  A    between atoms: _178  and  _181
REMARK   77  A    between atoms: _181  and  _182
REMARK   78  A    between atoms: _187  and  _188
REMARK   79  A    between atoms: _190  and  _192
REMARK   80  A    between atoms: _192  and  _193
REMARK   81  A    between atoms: _195  and  _197
REMARK   82  A    between atoms: _197  and  _198
REMARK   83  A    between atoms: _197  and  _200
REMARK   84  A    between atoms: _200  and  _201
REMARK   85  A    between atoms: _204  and  _206
REMARK   86  A    between atoms: _206  and  _207
REMARK   87  A    between atoms: _209  and  _211
REMARK   88  A    between atoms: _211  and  _212
REMARK   89  A    between atoms: _211  and  _214
REMARK   90  A    between atoms: _214  and  _215
REMARK   91  A    between atoms: _217  and  _219
REMARK   92  A    between atoms: _219  and  _220
REMARK   93  A    between atoms: _219  and  _222
REMARK   94  A    between atoms: _222  and  _223
REMARK   95  A    between atoms: _225  and  _227
REMARK   96  A    between atoms: _227  and  _228
REMARK   97  A    between atoms: _227  and  _230
REMARK   98  A    between atoms: _230  and  _231
REMARK   99  A    between atoms: _233  and  _235
REMARK  100  A    between atoms: _235  and  _236
REMARK  101  A    between atoms: _235  and  _238
REMARK  102  A    between atoms: _238  and  _239
REMARK  103  A    between atoms: _241  and  _243
REMARK  104  A    between atoms: _243  and  _244
REMARK  105  A    between atoms: _243  and  _246
REMARK  106  A    between atoms: _246  and  _247
REMARK  107  A    between atoms: _253  and  _255
REMARK  108  A    between atoms: _255  and  _256
REMARK  109  A    between atoms: _255  and  _258
REMARK  110  A    between atoms: _258  and  _259
REMARK  111  A    between atoms: _259  and  _260
REMARK  112  A    between atoms: _263  and  _265
REMARK  113  A    between atoms: _265  and  _266
REMARK  114  A    between atoms: _265  and  _268
REMARK  115  A    between atoms: _268  and  _269
REMARK  116  A    between atoms: _272  and  _274
REMARK  117  A    between atoms: _274  and  _275
REMARK  118  A    between atoms: _274  and  _277
REMARK  119  A    between atoms: _277  and  _278
REMARK  120  A    between atoms: _280  and  _282
REMARK  121  A    between atoms: _282  and  _283
REMARK  122  A    between atoms: _282  and  _285
REMARK  123  A    between atoms: _285  and  _286
REMARK  124  A    between atoms: _289  and  _291
REMARK  125  A    between atoms: _291  and  _292
REMARK  126  A    between atoms: _291  and  _294
REMARK  127  A    between atoms: _294  and  _295
REMARK  128  A    between atoms: _298  and  _300
REMARK  129  A    between atoms: _300  and  _301
REMARK  130  A    between atoms: _303  and  _305
REMARK  131  A    between atoms: _305  and  _306
REMARK  132  A    between atoms: _305  and  _308
REMARK  133  A    between atoms: _308  and  _309
REMARK  134  A    between atoms: _312  and  _314
REMARK  135  A    between atoms: _314  and  _315
REMARK  136  A    between atoms: _314  and  _317
REMARK  137  A    between atoms: _317  and  _318
REMARK  138  A    between atoms: _321  and  _323
REMARK  139  A    between atoms: _323  and  _324
REMARK  140  A    between atoms: _323  and  _326
REMARK  141  A    between atoms: _326  and  _327
REMARK  142  A    between atoms: _330  and  _332
REMARK  143  A    between atoms: _332  and  _333
REMARK  144  A    between atoms: _336  and  _338
REMARK  145  A    between atoms: _338  and  _339
REMARK  146  A    between atoms: _338  and  _341
REMARK  147  A    between atoms: _341  and  _342
REMARK  148  A    between atoms: _348  and  _350
REMARK  149  A    between atoms: _350  and  _351
REMARK  150  A    between atoms: _350  and  _353
REMARK  151  A    between atoms: _353  and  _354
REMARK  152  A    between atoms: _356  and  _358
REMARK  153  A    between atoms: _358  and  _359
REMARK  154  A    between atoms: _358  and  _361
REMARK  155  A    between atoms: _361  and  _362
REMARK  156  A    between atoms: _365  and  _367
REMARK  157  A    between atoms: _367  and  _368
REMARK  158  A    between atoms: _367  and  _370
REMARK  159  A    between atoms: _370  and  _371
REMARK  160  A    between atoms: _374  and  _376
REMARK  161  A    between atoms: _376  and  _377
REMARK  162  A    between atoms: _376  and  _379
REMARK  163  A    between atoms: _379  and  _380
REMARK  164  A    between atoms: _385  and  _387
REMARK  165  A    between atoms: _387  and  _388
REMARK  166  A    between atoms: _387  and  _390
REMARK  167  A    between atoms: _390  and  _391
REMARK  168  A    between atoms: _394  and  _396
REMARK  169  A    between atoms: _396  and  _397
REMARK  170  A    between atoms: _396  and  _399
REMARK  171  A    between atoms: _402  and  _404
REMARK  172  A    between atoms: _404  and  _405
REMARK  173  A    between atoms: _404  and  _407
REMARK  174  A    between atoms: _407  and  _408
REMARK  175  A    between atoms: _408  and  _409
REMARK  176  A    between atoms: _414  and  _416
REMARK  177  A    between atoms: _416  and  _417
REMARK  178  A    between atoms: _416  and  _419
REMARK  179  A    between atoms: _419  and  _420
REMARK  180  A    between atoms: _420  and  _421
REMARK  181  A    between atoms: _426  and  _428
REMARK  182  A    between atoms: _428  and  _429
REMARK  183  A    between atoms: _428  and  _431
REMARK  184  A    between atoms: _431  and  _432
REMARK  185  A    between atoms: _438  and  _440
REMARK  186  A    between atoms: _440  and  _441
REMARK  187  A    between atoms: _440  and  _443
REMARK  188  A    between atoms: _443  and  _444
REMARK  189  A    between atoms: _454  and  _456
REMARK  190  A    between atoms: _456  and  _457
REMARK  191  A    between atoms: _459  and  _461
REMARK  192  A    between atoms: _461  and  _462
REMARK  193  A    between atoms: _461  and  _464
REMARK  194  A    between atoms: _464  and  _465
REMARK  195  A    between atoms: _468  and  _470
REMARK  196  A    between atoms: _470  and  _471
REMARK  197  A    between atoms: _474  and  _476
REMARK  198  A    between atoms: _476  and  _477
REMARK  199  A    between atoms: _476  and  _479
REMARK  200  A    between atoms: _479  and  _480
REMARK  201  A    between atoms: _483  and  _485
REMARK  202  A    between atoms: _485  and  _486
REMARK  203  A    between atoms: _485  and  _488
REMARK  204  A    between atoms: _488  and  _489
REMARK  205  A    between atoms: _492  and  _494
REMARK  206  A    between atoms: _494  and  _495
REMARK  207  A    between atoms: _497  and  _499
REMARK  208  A    between atoms: _499  and  _500
REMARK  209  A    between atoms: _499  and  _502
REMARK  210  A    between atoms: _502  and  _503
REMARK  211  A    between atoms: _506  and  _508
REMARK  212  A    between atoms: _508  and  _509
REMARK  213  A    between atoms: _508  and  _511
REMARK  214  A    between atoms: _511  and  _512
REMARK  215  A    between atoms: _515  and  _517
REMARK  216  A    between atoms: _517  and  _518
REMARK  217  A    between atoms: _517  and  _520
REMARK  218  A    between atoms: _520  and  _521
REMARK  219  A    between atoms: _524  and  _526
REMARK  220  A    between atoms: _526  and  _527
REMARK  221  A    between atoms: _526  and  _529
REMARK  222  A    between atoms: _529  and  _530
REMARK  223  A    between atoms: _533  and  _535
REMARK  224  A    between atoms: _535  and  _536
REMARK  225  A    between atoms: _535  and  _538
REMARK  226  A    between atoms: _538  and  _539
REMARK  227  A    between atoms: _544  and  _545
REMARK  228  A    between atoms: _547  and  _549
REMARK  229  A    between atoms: _549  and  _550
REMARK  230  A    between atoms: _549  and  _552
REMARK  231  A    between atoms: _555  and  _557
REMARK  232  A    between atoms: _557  and  _558
REMARK  233  A    between atoms: _560  and  _562
REMARK  234  A    between atoms: _562  and  _563
REMARK  235  A    between atoms: _562  and  _565
REMARK  236  A    between atoms: _565  and  _566
REMARK  237  A    between atoms: _572  and  _574
REMARK  238  A    between atoms: _574  and  _575
REMARK  239  A    between atoms: _574  and  _577
REMARK  240  A    between atoms: _577  and  _578
REMARK  241  A    between atoms: _584  and  _586
REMARK  242  A    between atoms: _586  and  _587
REMARK  243  A    between atoms: _589  and  _591
REMARK  244  A    between atoms: _591  and  _592
REMARK  245  A    between atoms: _594  and  _596
REMARK  246  A    between atoms: _596  and  _597
REMARK  247  A    between atoms: _596  and  _599
REMARK  248  A    between atoms: _599  and  _600
REMARK  249  A    between atoms: _600  and  _601
REMARK  250  A    between atoms: _606  and  _608
REMARK  251  A    between atoms: _608  and  _609
REMARK  252  A    between atoms: _608  and  _611
REMARK  253  A    between atoms: _611  and  _612
REMARK  254  A    between atoms: _614  and  _616
REMARK  255  A    between atoms: _616  and  _617
REMARK  256  A    between atoms: _619  and  _621
REMARK  257  A    between atoms: _621  and  _622
REMARK  258  A    between atoms: _621  and  _624
REMARK  259  A    between atoms: _624  and  _625
REMARK  260  A    between atoms: _628  and  _630
REMARK  261  A    between atoms: _630  and  _631
REMARK  262  A    between atoms: _633  and  _635
REMARK  263  A    between atoms: _635  and  _636
REMARK  264  A    between atoms: _635  and  _638
REMARK  265  A    between atoms: _638  and  _639
REMARK  266  A    between atoms: _642  and  _644
REMARK  267  A    between atoms: _644  and  _645
REMARK  268  A    between atoms: _644  and  _647
REMARK  269  A    between atoms: _647  and  _648
REMARK  270  A    between atoms: _653  and  _655
REMARK  271  A    between atoms: _655  and  _656
REMARK  272  A    between atoms: _655  and  _658
REMARK  273  A    between atoms: _658  and  _659
REMARK  274  A    between atoms: _662  and  _664
REMARK  275  A    between atoms: _664  and  _665
REMARK  276  A    between atoms: _664  and  _667
REMARK  277  A    between atoms: _667  and  _668
REMARK  278  A    between atoms: _674  and  _676
REMARK  279  A    between atoms: _676  and  _677
REMARK  280  A    between atoms: _679  and  _681
REMARK  281  A    between atoms: _681  and  _682
REMARK  282  A    between atoms: _681  and  _684
REMARK  283  A    between atoms: _684  and  _685
REMARK                            x       y       z     vdW  Elec       q    Type
REMARK                         _______ _______ _______ _____ _____    ______ ____
ROOT
ATOM      1  O   HOH     1       7.573  51.101   9.784  0.00  0.00    +0.000 OA
ENDROOT
TORSDOF 0
REMARK  Name = ../refined-set-2016/5er2/5er2_pocket.pdb
REMARK  283 active torsions:
REMARK  status: ('A' for Active; 'I' for Inactive)
REMARK    1  A    between atoms: _1  and  _3
REMARK    2  A    between atoms: _3  and  _4
REMARK    3  A    between atoms: _3  and  _6
REMARK    4  A    between atoms: _6  and  _7
REMARK    5  A    between atoms: _10  and  _12
REMARK    6  A    between atoms: _12  and  _13
REMARK    7  A    between atoms: _12  and  _15
REMARK    8  A    between atoms: _15  and  _16
REMARK    9  A    between atoms: _19  and  _21
REMARK   10  A    between atoms: _21  and  _22
REMARK   11  A    between atoms: _21  and  _24
REMARK   12  A    between atoms: _24  and  _25
REMARK   13  A    between atoms: _28  and  _30
REMARK   14  A    between atoms: _30  and  _31
REMARK   15  A    between atoms: _30  and  _33
REMARK   16  A    between atoms: _33  and  _34
REMARK   17  A    between atoms: _37  and  _39
REMARK   18  A    between atoms: _39  and  _40
REMARK   19  A    between atoms: _39  and  _42
REMARK   20  A    between atoms: _42  and  _43
REMARK   21  A    between atoms: _46  and  _48
REMARK   22  A    between atoms: _48  and  _49
REMARK   23  A    between atoms: _52  and  _54
REMARK   24  A    between atoms: _54  and  _55
REMARK   25  A    between atoms: _54  and  _57
REMARK   26  A    between atoms: _57  and  _58
REMARK   27  A    between atoms: _63  and  _64
REMARK   28  A    between atoms: _66  and  _68
REMARK   29  A    between atoms: _68  and  _69
REMARK   30  A    between atoms: _68  and  _71
REMARK   31  A    between atoms: _71  and  _72
REMARK   32  A    between atoms: _75  and  _77
REMARK   33  A    between atoms: _77  and  _78
REMARK   34  A    between atoms: _77  and  _80
REMARK   35  A    between atoms: _80  and  _81
REMARK   36  A    between atoms: _87  and  _89
REMARK   37  A    between atoms: _89  and  _90
REMARK   38  A    between atoms: _89  and  _92
REMARK   39  A    between atoms: _92  and  _93
REMARK   40  A    between atoms: _96  and  _98
REMARK   41  A    between atoms: _98  and  _99
REMARK   42  A    between atoms: _98  and  _101
REMARK   43  A    between atoms: _101  and  _102
REMARK   44  A    between atoms: _105  and  _107
REMARK   45  A    between atoms: _107  and  _108
REMARK   46  A    between atoms: _110  and  _112
REMARK   47  A    between atoms: _112  and  _113
REMARK   48  A    between atoms: _112  and  _115
REMARK   49  A    between atoms: _115  and  _116
REMARK   50  A    between atoms: _118  and  _120
REMARK   51  A    between atoms: _120  and  _121
REMARK   52  A    between atoms: _120  and  _123
REMARK   53  A    between atoms: _123  and  _124
REMARK   54  A    between atoms: _126  and  _128
REMARK   55  A    between atoms: _128  and  _129
REMARK   56  A    between atoms: _128  and  _131
REMARK   57  A    between atoms: _131  and  _132
REMARK   58  A    between atoms: _135  and  _137
REMARK   59  A    between atoms: _137  and  _138
REMARK   60  A    between atoms: _137  and  _140
REMARK   61  A    between atoms: _140  and  _141
REMARK   62  A    between atoms: _151  and  _153
REMARK   63  A    between atoms: _153  and  _154
REMARK   64  A    between atoms: _153  and  _156
REMARK   65  A    between atoms: _156  and  _157
REMARK   66  A    between atoms: _159  and  _161
REMARK   67  A    between atoms: _161  and  _162
REMARK   68  A    between atoms: _161  and  _164
REMARK   69  A    between atoms: _164  and  _165
REMARK   70  A    between atoms: _168  and  _170
REMARK   71  A    between atoms: _170  and  _171
REMARK   72  A    between atoms: _170  and  _173
REMARK   73  A    between atoms: _173  and  _174
REMARK   74  A    between atoms: _176  and  _178
REMARK   75  A    between atoms: _178  and  _179
REMARK   76  A    between atoms: _178  and  _181
REMARK   77  A    between atoms: _181  and  _182
REMARK   78  A    between atoms: _187  and  _188
REMARK   79  A    between atoms: _190  and  _192
REMARK   80  A    between atoms: _192  and  _193
REMARK   81  A    between atoms: _195  and  _197
REMARK   82  A    between atoms: _197  and  _198
REMARK   83  A    between atoms: _197  and  _200
REMARK   84  A    between atoms: _200  and  _201
REMARK   85  A    between atoms: _204  and  _206
REMARK   86  A    between atoms: _206  and  _207
REMARK   87  A    between atoms: _209  and  _211
REMARK   88  A    between atoms: _211  and  _212
REMARK   89  A    between atoms: _211  and  _214
REMARK   90  A    between atoms: _214  and  _215
REMARK   91  A    between atoms: _217  and  _219
REMARK   92  A    between atoms: _219  and  _220
REMARK   93  A    between atoms: _219  and  _222
REMARK   94  A    between atoms: _222  and  _223
REMARK   95  A    between atoms: _225  and  _227
REMARK   96  A    between atoms: _227  and  _228
REMARK   97  A    between atoms: _227  and  _230
REMARK   98  A    between atoms: _230  and  _231
REMARK   99  A    between atoms: _233  and  _235
REMARK  100  A    between atoms: _235  and  _236
REMARK  101  A    between atoms: _235  and  _238
REMARK  102  A    between atoms: _238  and  _239
REMARK  103  A    between atoms: _241  and  _243
REMARK  104  A    between atoms: _243  and  _244
REMARK  105  A    between atoms: _243  and  _246
REMARK  106  A    between atoms: _246  and  _247
REMARK  107  A    between atoms: _253  and  _255
REMARK  108  A    between atoms: _255  and  _256
REMARK  109  A    between atoms: _255  and  _258
REMARK  110  A    between atoms: _258  and  _259
REMARK  111  A    between atoms: _259  and  _260
REMARK  112  A    between atoms: _263  and  _265
REMARK  113  A    between atoms: _265  and  _266
REMARK  114  A    between atoms: _265  and  _268
REMARK  115  A    between atoms: _268  and  _269
REMARK  116  A    between atoms: _272  and  _274
REMARK  117  A    between atoms: _274  and  _275
REMARK  118  A    between atoms: _274  and  _277
REMARK  119  A    between atoms: _277  and  _278
REMARK  120  A    between atoms: _280  and  _282
REMARK  121  A    between atoms: _282  and  _283
REMARK  122  A    between atoms: _282  and  _285
REMARK  123  A    between atoms: _285  and  _286
REMARK  124  A    between atoms: _289  and  _291
REMARK  125  A    between atoms: _291  and  _292
REMARK  126  A    between atoms: _291  and  _294
REMARK  127  A    between atoms: _294  and  _295
REMARK  128  A    between atoms: _298  and  _300
REMARK  129  A    between atoms: _300  and  _301
REMARK  130  A    between atoms: _303  and  _305
REMARK  131  A    between atoms: _305  and  _306
REMARK  132  A    between atoms: _305  and  _308
REMARK  133  A    between atoms: _308  and  _309
REMARK  134  A    between atoms: _312  and  _314
REMARK  135  A    between atoms: _314  and  _315
REMARK  136  A    between atoms: _314  and  _317
REMARK  137  A    between atoms: _317  and  _318
REMARK  138  A    between atoms: _321  and  _323
REMARK  139  A    between atoms: _323  and  _324
REMARK  140  A    between atoms: _323  and  _326
REMARK  141  A    between atoms: _326  and  _327
REMARK  142  A    between atoms: _330  and  _332
REMARK  143  A    between atoms: _332  and  _333
REMARK  144  A    between atoms: _336  and  _338
REMARK  145  A    between atoms: _338  and  _339
REMARK  146  A    between atoms: _338  and  _341
REMARK  147  A    between atoms: _341  and  _342
REMARK  148  A    between atoms: _348  and  _350
REMARK  149  A    between atoms: _350  and  _351
REMARK  150  A    between atoms: _350  and  _353
REMARK  151  A    between atoms: _353  and  _354
REMARK  152  A    between atoms: _356  and  _358
REMARK  153  A    between atoms: _358  and  _359
REMARK  154  A    between atoms: _358  and  _361
REMARK  155  A    between atoms: _361  and  _362
REMARK  156  A    between atoms: _365  and  _367
REMARK  157  A    between atoms: _367  and  _368
REMARK  158  A    between atoms: _367  and  _370
REMARK  159  A    between atoms: _370  and  _371
REMARK  160  A    between atoms: _374  and  _376
REMARK  161  A    between atoms: _376  and  _377
REMARK  162  A    between atoms: _376  and  _379
REMARK  163  A    between atoms: _379  and  _380
REMARK  164  A    between atoms: _385  and  _387
REMARK  165  A    between atoms: _387  and  _388
REMARK  166  A    between atoms: _387  and  _390
REMARK  167  A    between atoms: _390  and  _391
REMARK  168  A    between atoms: _394  and  _396
REMARK  169  A    between atoms: _396  and  _397
REMARK  170  A    between atoms: _396  and  _399
REMARK  171  A    between atoms: _402  and  _404
REMARK  172  A    between atoms: _404  and  _405
REMARK  173  A    between atoms: _404  and  _407
REMARK  174  A    between atoms: _407  and  _408
REMARK  175  A    between atoms: _408  and  _409
REMARK  176  A    between atoms: _414  and  _416
REMARK  177  A    between atoms: _416  and  _417
REMARK  178  A    between atoms: _416  and  _419
REMARK  179  A    between atoms: _419  and  _420
REMARK  180  A    between atoms: _420  and  _421
REMARK  181  A    between atoms: _426  and  _428
REMARK  182  A    between atoms: _428  and  _429
REMARK  183  A    between atoms: _428  and  _431
REMARK  184  A    between atoms: _431  and  _432
REMARK  185  A    between atoms: _438  and  _440
REMARK  186  A    between atoms: _440  and  _441
REMARK  187  A    between atoms: _440  and  _443
REMARK  188  A    between atoms: _443  and  _444
REMARK  189  A    between atoms: _454  and  _456
REMARK  190  A    between atoms: _456  and  _457
REMARK  191  A    between atoms: _459  and  _461
REMARK  192  A    between atoms: _461  and  _462
REMARK  193  A    between atoms: _461  and  _464
REMARK  194  A    between atoms: _464  and  _465
REMARK  195  A    between atoms: _468  and  _470
REMARK  196  A    between atoms: _470  and  _471
REMARK  197  A    between atoms: _474  and  _476
REMARK  198  A    between atoms: _476  and  _477
REMARK  199  A    between atoms: _476  and  _479
REMARK  200  A    between atoms: _479  and  _480
REMARK  201  A    between atoms: _483  and  _485
REMARK  202  A    between atoms: _485  and  _486
REMARK  203  A    between atoms: _485  and  _488
REMARK  204  A    between atoms: _488  and  _489
REMARK  205  A    between atoms: _492  and  _494
REMARK  206  A    between atoms: _494  and  _495
REMARK  207  A    between atoms: _497  and  _499
REMARK  208  A    between atoms: _499  and  _500
REMARK  209  A    between atoms: _499  and  _502
REMARK  210  A    between atoms: _502  and  _503
REMARK  211  A    between atoms: _506  and  _508
REMARK  212  A    between atoms: _508  and  _509
REMARK  213  A    between atoms: _508  and  _511
REMARK  214  A    between atoms: _511  and  _512
REMARK  215  A    between atoms: _515  and  _517
REMARK  216  A    between atoms: _517  and  _518
REMARK  217  A    between atoms: _517  and  _520
REMARK  218  A    between atoms: _520  and  _521
REMARK  219  A    between atoms: _524  and  _526
REMARK  220  A    between atoms: _526  and  _527
REMARK  221  A    between atoms: _526  and  _529
REMARK  222  A    between atoms: _529  and  _530
REMARK  223  A    between atoms: _533  and  _535
REMARK  224  A    between atoms: _535  and  _536
REMARK  225  A    between atoms: _535  and  _538
REMARK  226  A    between atoms: _538  and  _539
REMARK  227  A    between atoms: _544  and  _545
REMARK  228  A    between atoms: _547  and  _549
REMARK  229  A    between atoms: _549  and  _550
REMARK  230  A    between atoms: _549  and  _552
REMARK  231  A    between atoms: _555  and  _557
REMARK  232  A    between atoms: _557  and  _558
REMARK  233  A    between atoms: _560  and  _562
REMARK  234  A    between atoms: _562  and  _563
REMARK  235  A    between atoms: _562  and  _565
REMARK  236  A    between atoms: _565  and  _566
REMARK  237  A    between atoms: _572  and  _574
REMARK  238  A    between atoms: _574  and  _575
REMARK  239  A    between atoms: _574  and  _577
REMARK  240  A    between atoms: _577  and  _578
REMARK  241  A    between atoms: _584  and  _586
REMARK  242  A    between atoms: _586  and  _587
REMARK  243  A    between atoms: _589  and  _591
REMARK  244  A    between atoms: _591  and  _592
REMARK  245  A    between atoms: _594  and  _596
REMARK  246  A    between atoms: _596  and  _597
REMARK  247  A    between atoms: _596  and  _599
REMARK  248  A    between atoms: _599  and  _600
REMARK  249  A    between atoms: _600  and  _601
REMARK  250  A    between atoms: _606  and  _608
REMARK  251  A    between atoms: _608  and  _609
REMARK  252  A    between atoms: _608  and  _611
REMARK  253  A    between atoms: _611  and  _612
REMARK  254  A    between atoms: _614  and  _616
REMARK  255  A    between atoms: _616  and  _617
REMARK  256  A    between atoms: _619  and  _621
REMARK  257  A    between atoms: _621  and  _622
REMARK  258  A    between atoms: _621  and  _624
REMARK  259  A    between atoms: _624  and  _625
REMARK  260  A    between atoms: _628  and  _630
REMARK  261  A    between atoms: _630  and  _631
REMARK  262  A    between atoms: _633  and  _635
REMARK  263  A    between atoms: _635  and  _636
REMARK  264  A    between atoms: _635  and  _638
REMARK  265  A    between atoms: _638  and  _639
REMARK  266  A    between atoms: _642  and  _644
REMARK  267  A    between atoms: _644  and  _645
REMARK  268  A    between atoms: _644  and  _647
REMARK  269  A    between atoms: _647  and  _648
REMARK  270  A    between atoms: _653  and  _655
REMARK  271  A    between atoms: _655  and  _656
REMARK  272  A    between atoms: _655  and  _658
REMARK  273  A    between atoms: _658  and  _659
REMARK  274  A    between atoms: _662  and  _664
REMARK  275  A    between atoms: _664  and  _665
REMARK  276  A    between atoms: _664  and  _667
REMARK  277  A    between atoms: _667  and  _668
REMARK  278  A    between atoms: _674  and  _676
REMARK  279  A    between atoms: _676  and  _677
REMARK  280  A    between atoms: _679  and  _681
REMARK  281  A    between atoms: _681  and  _682
REMARK  282  A    between atoms: _681  and  _684
REMARK  283  A    between atoms: _684  and  _685
REMARK                            x       y       z     vdW  Elec       q    Type
REMARK                         _______ _______ _______ _____ _____    ______ ____
ROOT
ATOM      1  O   HOH     1      10.304  23.304  25.015  0.00  0.00    +0.000 OA
ENDROOT
TORSDOF 0
REMARK  Name = ../refined-set-2016/5er2/5er2_pocket.pdb
REMARK  283 active torsions:
REMARK  status: ('A' for Active; 'I' for Inactive)
REMARK    1  A    between atoms: _1  and  _3
REMARK    2  A    between atoms: _3  and  _4
REMARK    3  A    between atoms: _3  and  _6
REMARK    4  A    between atoms: _6  and  _7
REMARK    5  A    between atoms: _10  and  _12
REMARK    6  A    between atoms: _12  and  _13
REMARK    7  A    between atoms: _12  and  _15
REMARK    8  A    between atoms: _15  and  _16
REMARK    9  A    between atoms: _19  and  _21
REMARK   10  A    between atoms: _21  and  _22
REMARK   11  A    between atoms: _21  and  _24
REMARK   12  A    between atoms: _24  and  _25
REMARK   13  A    between atoms: _28  and  _30
REMARK   14  A    between atoms: _30  and  _31
REMARK   15  A    between atoms: _30  and  _33
REMARK   16  A    between atoms: _33  and  _34
REMARK   17  A    between atoms: _37  and  _39
REMARK   18  A    between atoms: _39  and  _40
REMARK   19  A    between atoms: _39  and  _42
REMARK   20  A    between atoms: _42  and  _43
REMARK   21  A    between atoms: _46  and  _48
REMARK   22  A    between atoms: _48  and  _49
REMARK   23  A    between atoms: _52  and  _54
REMARK   24  A    between atoms: _54  and  _55
REMARK   25  A    between atoms: _54  and  _57
REMARK   26  A    between atoms: _57  and  _58
REMARK   27  A    between atoms: _63  and  _64
REMARK   28  A    between atoms: _66  and  _68
REMARK   29  A    between atoms: _68  and  _69
REMARK   30  A    between atoms: _68  and  _71
REMARK   31  A    between atoms: _71  and  _72
REMARK   32  A    between atoms: _75  and  _77
REMARK   33  A    between atoms: _77  and  _78
REMARK   34  A    between atoms: _77  and  _80
REMARK   35  A    between atoms: _80  and  _81
REMARK   36  A    between atoms: _87  and  _89
REMARK   37  A    between atoms: _89  and  _90
REMARK   38  A    between atoms: _89  and  _92
REMARK   39  A    between atoms: _92  and  _93
REMARK   40  A    between atoms: _96  and  _98
REMARK   41  A    between atoms: _98  and  _99
REMARK   42  A    between atoms: _98  and  _101
REMARK   43  A    between atoms: _101  and  _102
REMARK   44  A    between atoms: _105  and  _107
REMARK   45  A    between atoms: _107  and  _108
REMARK   46  A    between atoms: _110  and  _112
REMARK   47  A    between atoms: _112  and  _113
REMARK   48  A    between atoms: _112  and  _115
REMARK   49  A    between atoms: _115  and  _116
REMARK   50  A    between atoms: _118  and  _120
REMARK   51  A    between atoms: _120  and  _121
REMARK   52  A    between atoms: _120  and  _123
REMARK   53  A    between atoms: _123  and  _124
REMARK   54  A    between atoms: _126  and  _128
REMARK   55  A    between atoms: _128  and  _129
REMARK   56  A    between atoms: _128  and  _131
REMARK   57  A    between atoms: _131  and  _132
REMARK   58  A    between atoms: _135  and  _137
REMARK   59  A    between atoms: _137  and  _138
REMARK   60  A    between atoms: _137  and  _140
REMARK   61  A    between atoms: _140  and  _141
REMARK   62  A    between atoms: _151  and  _153
REMARK   63  A    between atoms: _153  and  _154
REMARK   64  A    between atoms: _153  and  _156
REMARK   65  A    between atoms: _156  and  _157
REMARK   66  A    between atoms: _159  and  _161
REMARK   67  A    between atoms: _161  and  _162
REMARK   68  A    between atoms: _161  and  _164
REMARK   69  A    between atoms: _164  and  _165
REMARK   70  A    between atoms: _168  and  _170
REMARK   71  A    between atoms: _170  and  _171
REMARK   72  A    between atoms: _170  and  _173
REMARK   73  A    between atoms: _173  and  _174
REMARK   74  A    between atoms: _176  and  _178
REMARK   75  A    between atoms: _178  and  _179
REMARK   76  A    between atoms: _178  and  _181
REMARK   77  A    between atoms: _181  and  _182
REMARK   78  A    between atoms: _187  and  _188
REMARK   79  A    between atoms: _190  and  _192
REMARK   80  A    between atoms: _192  and  _193
REMARK   81  A    between atoms: _195  and  _197
REMARK   82  A    between atoms: _197  and  _198
REMARK   83  A    between atoms: _197  and  _200
REMARK   84  A    between atoms: _200  and  _201
REMARK   85  A    between atoms: _204  and  _206
REMARK   86  A    between atoms: _206  and  _207
REMARK   87  A    between atoms: _209  and  _211
REMARK   88  A    between atoms: _211  and  _212
REMARK   89  A    between atoms: _211  and  _214
REMARK   90  A    between atoms: _214  and  _215
REMARK   91  A    between atoms: _217  and  _219
REMARK   92  A    between atoms: _219  and  _220
REMARK   93  A    between atoms: _219  and  _222
REMARK   94  A    between atoms: _222  and  _223
REMARK   95  A    between atoms: _225  and  _227
REMARK   96  A    between atoms: _227  and  _228
REMARK   97  A    between atoms: _227  and  _230
REMARK   98  A    between atoms: _230  and  _231
REMARK   99  A    between atoms: _233  and  _235
REMARK  100  A    between atoms: _235  and  _236
REMARK  101  A    between atoms: _235  and  _238
REMARK  102  A    between atoms: _238  and  _239
REMARK  103  A    between atoms: _241  and  _243
REMARK  104  A    between atoms: _243  and  _244
REMARK  105  A    between atoms: _243  and  _246
REMARK  106  A    between atoms: _246  and  _247
REMARK  107  A    between atoms: _253  and  _255
REMARK  108  A    between atoms: _255  and  _256
REMARK  109  A    between atoms: _255  and  _258
REMARK  110  A    between atoms: _258  and  _259
REMARK  111  A    between atoms: _259  and  _260
REMARK  112  A    between atoms: _263  and  _265
REMARK  113  A    between atoms: _265  and  _266
REMARK  114  A    between atoms: _265  and  _268
REMARK  115  A    between atoms: _268  and  _269
REMARK  116  A    between atoms: _272  and  _274
REMARK  117  A    between atoms: _274  and  _275
REMARK  118  A    between atoms: _274  and  _277
REMARK  119  A    between atoms: _277  and  _278
REMARK  120  A    between atoms: _280  and  _282
REMARK  121  A    between atoms: _282  and  _283
REMARK  122  A    between atoms: _282  and  _285
REMARK  123  A    between atoms: _285  and  _286
REMARK  124  A    between atoms: _289  and  _291
REMARK  125  A    between atoms: _291  and  _292
REMARK  126  A    between atoms: _291  and  _294
REMARK  127  A    between atoms: _294  and  _295
REMARK  128  A    between atoms: _298  and  _300
REMARK  129  A    between atoms: _300  and  _301
REMARK  130  A    between atoms: _303  and  _305
REMARK  131  A    between atoms: _305  and  _306
REMARK  132  A    between atoms: _305  and  _308
REMARK  133  A    between atoms: _308  and  _309
REMARK  134  A    between atoms: _312  and  _314
REMARK  135  A    between atoms: _314  and  _315
REMARK  136  A    between atoms: _314  and  _317
REMARK  137  A    between atoms: _317  and  _318
REMARK  138  A    between atoms: _321  and  _323
REMARK  139  A    between atoms: _323  and  _324
REMARK  140  A    between atoms: _323  and  _326
REMARK  141  A    between atoms: _326  and  _327
REMARK  142  A    between atoms: _330  and  _332
REMARK  143  A    between atoms: _332  and  _333
REMARK  144  A    between atoms: _336  and  _338
REMARK  145  A    between atoms: _338  and  _339
REMARK  146  A    between atoms: _338  and  _341
REMARK  147  A    between atoms: _341  and  _342
REMARK  148  A    between atoms: _348  and  _350
REMARK  149  A    between atoms: _350  and  _351
REMARK  150  A    between atoms: _350  and  _353
REMARK  151  A    between atoms: _353  and  _354
REMARK  152  A    between atoms: _356  and  _358
REMARK  153  A    between atoms: _358  and  _359
REMARK  154  A    between atoms: _358  and  _361
REMARK  155  A    between atoms: _361  and  _362
REMARK  156  A    between atoms: _365  and  _367
REMARK  157  A    between atoms: _367  and  _368
REMARK  158  A    between atoms: _367  and  _370
REMARK  159  A    between atoms: _370  and  _371
REMARK  160  A    between atoms: _374  and  _376
REMARK  161  A    between atoms: _376  and  _377
REMARK  162  A    between atoms: _376  and  _379
REMARK  163  A    between atoms: _379  and  _380
REMARK  164  A    between atoms: _385  and  _387
REMARK  165  A    between atoms: _387  and  _388
REMARK  166  A    between atoms: _387  and  _390
REMARK  167  A    between atoms: _390  and  _391
REMARK  168  A    between atoms: _394  and  _396
REMARK  169  A    between atoms: _396  and  _397
REMARK  170  A    between atoms: _396  and  _399
REMARK  171  A    between atoms: _402  and  _404
REMARK  172  A    between atoms: _404  and  _405
REMARK  173  A    between atoms: _404  and  _407
REMARK  174  A    between atoms: _407  and  _408
REMARK  175  A    between atoms: _408  and  _409
REMARK  176  A    between atoms: _414  and  _416
REMARK  177  A    between atoms: _416  and  _417
REMARK  178  A    between atoms: _416  and  _419
REMARK  179  A    between atoms: _419  and  _420
REMARK  180  A    between atoms: _420  and  _421
REMARK  181  A    between atoms: _426  and  _428
REMARK  182  A    between atoms: _428  and  _429
REMARK  183  A    between atoms: _428  and  _431
REMARK  184  A    between atoms: _431  and  _432
REMARK  185  A    between atoms: _438  and  _440
REMARK  186  A    between atoms: _440  and  _441
REMARK  187  A    between atoms: _440  and  _443
REMARK  188  A    between atoms: _443  and  _444
REMARK  189  A    between atoms: _454  and  _456
REMARK  190  A    between atoms: _456  and  _457
REMARK  191  A    between atoms: _459  and  _461
REMARK  192  A    between atoms: _461  and  _462
REMARK  193  A    between atoms: _461  and  _464
REMARK  194  A    between atoms: _464  and  _465
REMARK  195  A    between atoms: _468  and  _470
REMARK  196  A    between atoms: _470  and  _471
REMARK  197  A    between atoms: _474  and  _476
REMARK  198  A    between atoms: _476  and  _477
REMARK  199  A    between atoms: _476  and  _479
REMARK  200  A    between atoms: _479  and  _480
REMARK  201  A    between atoms: _483  and  _485
REMARK  202  A    between atoms: _485  and  _486
REMARK  203  A    between atoms: _485  and  _488
REMARK  204  A    between atoms: _488  and  _489
REMARK  205  A    between atoms: _492  and  _494
REMARK  206  A    between atoms: _494  and  _495
REMARK  207  A    between atoms: _497  and  _499
REMARK  208  A    between atoms: _499  and  _500
REMARK  209  A    between atoms: _499  and  _502
REMARK  210  A    between atoms: _502  and  _503
REMARK  211  A    between atoms: _506  and  _508
REMARK  212  A    between atoms: _508  and  _509
REMARK  213  A    between atoms: _508  and  _511
REMARK  214  A    between atoms: _511  and  _512
REMARK  215  A    between atoms: _515  and  _517
REMARK  216  A    between atoms: _517  and  _518
REMARK  217  A    between atoms: _517  and  _520
REMARK  218  A    between atoms: _520  and  _521
REMARK  219  A    between atoms: _524  and  _526
REMARK  220  A    between atoms: _526  and  _527
REMARK  221  A    between atoms: _526  and  _529
REMARK  222  A    between atoms: _529  and  _530
REMARK  223  A    between atoms: _533  and  _535
REMARK  224  A    between atoms: _535  and  _536
REMARK  225  A    between atoms: _535  and  _538
REMARK  226  A    between atoms: _538  and  _539
REMARK  227  A    between atoms: _544  and  _545
REMARK  228  A    between atoms: _547  and  _549
REMARK  229  A    between atoms: _549  and  _550
REMARK  230  A    between atoms: _549  and  _552
REMARK  231  A    between atoms: _555  and  _557
REMARK  232  A    between atoms: _557  and  _558
REMARK  233  A    between atoms: _560  and  _562
REMARK  234  A    between atoms: _562  and  _563
REMARK  235  A    between atoms: _562  and  _565
REMARK  236  A    between atoms: _565  and  _566
REMARK  237  A    between atoms: _572  and  _574
REMARK  238  A    between atoms: _574  and  _575
REMARK  239  A    between atoms: _574  and  _577
REMARK  240  A    between atoms: _577  and  _578
REMARK  241  A    between atoms: _584  and  _586
REMARK  242  A    between atoms: _586  and  _587
REMARK  243  A    between atoms: _589  and  _591
REMARK  244  A    between atoms: _591  and  _592
REMARK  245  A    between atoms: _594  and  _596
REMARK  246  A    between atoms: _596  and  _597
REMARK  247  A    between atoms: _596  and  _599
REMARK  248  A    between atoms: _599  and  _600
REMARK  249  A    between atoms: _600  and  _601
REMARK  250  A    between atoms: _606  and  _608
REMARK  251  A    between atoms: _608  and  _609
REMARK  252  A    between atoms: _608  and  _611
REMARK  253  A    between atoms: _611  and  _612
REMARK  254  A    between atoms: _614  and  _616
REMARK  255  A    between atoms: _616  and  _617
REMARK  256  A    between atoms: _619  and  _621
REMARK  257  A    between atoms: _621  and  _622
REMARK  258  A    between atoms: _621  and  _624
REMARK  259  A    between atoms: _624  and  _625
REMARK  260  A    between atoms: _628  and  _630
REMARK  261  A    between atoms: _630  and  _631
REMARK  262  A    between atoms: _633  and  _635
REMARK  263  A    between atoms: _635  and  _636
REMARK  264  A    between atoms: _635  and  _638
REMARK  265  A    between atoms: _638  and  _639
REMARK  266  A    between atoms: _642  and  _644
REMARK  267  A    between atoms: _644  and  _645
REMARK  268  A    between atoms: _644  and  _647
REMARK  269  A    between atoms: _647  and  _648
REMARK  270  A    between atoms: _653  and  _655
REMARK  271  A    between atoms: _655  and  _656
REMARK  272  A    between atoms: _655  and  _658
REMARK  273  A    between atoms: _658  and  _659
REMARK  274  A    between atoms: _662  and  _664
REMARK  275  A    between atoms: _664  and  _665
REMARK  276  A    between atoms: _664  and  _667
REMARK  277  A    between atoms: _667  and  _668
REMARK  278  A    between atoms: _674  and  _676
REMARK  279  A    between atoms: _676  and  _677
REMARK  280  A    between atoms: _679  and  _681
REMARK  281  A    between atoms: _681  and  _682
REMARK  282  A    between atoms: _681  and  _684
REMARK  283  A    between atoms: _684  and  _685
REMARK                            x       y       z     vdW  Elec       q    Type
REMARK                         _______ _______ _______ _____ _____    ______ ____
ROOT
ATOM      1  O   HOH     1       7.702  24.799  25.527  0.00  0.00    +0.000 OA
ENDROOT
TORSDOF 0
REMARK  Name = ../refined-set-2016/5er2/5er2_pocket.pdb
REMARK  283 active torsions:
REMARK  status: ('A' for Active; 'I' for Inactive)
REMARK    1  A    between atoms: _1  and  _3
REMARK    2  A    between atoms: _3  and  _4
REMARK    3  A    between atoms: _3  and  _6
REMARK    4  A    between atoms: _6  and  _7
REMARK    5  A    between atoms: _10  and  _12
REMARK    6  A    between atoms: _12  and  _13
REMARK    7  A    between atoms: _12  and  _15
REMARK    8  A    between atoms: _15  and  _16
REMARK    9  A    between atoms: _19  and  _21
REMARK   10  A    between atoms: _21  and  _22
REMARK   11  A    between atoms: _21  and  _24
REMARK   12  A    between atoms: _24  and  _25
REMARK   13  A    between atoms: _28  and  _30
REMARK   14  A    between atoms: _30  and  _31
REMARK   15  A    between atoms: _30  and  _33
REMARK   16  A    between atoms: _33  and  _34
REMARK   17  A    between atoms: _37  and  _39
REMARK   18  A    between atoms: _39  and  _40
REMARK   19  A    between atoms: _39  and  _42
REMARK   20  A    between atoms: _42  and  _43
REMARK   21  A    between atoms: _46  and  _48
REMARK   22  A    between atoms: _48  and  _49
REMARK   23  A    between atoms: _52  and  _54
REMARK   24  A    between atoms: _54  and  _55
REMARK   25  A    between atoms: _54  and  _57
REMARK   26  A    between atoms: _57  and  _58
REMARK   27  A    between atoms: _63  and  _64
REMARK   28  A    between atoms: _66  and  _68
REMARK   29  A    between atoms: _68  and  _69
REMARK   30  A    between atoms: _68  and  _71
REMARK   31  A    between atoms: _71  and  _72
REMARK   32  A    between atoms: _75  and  _77
REMARK   33  A    between atoms: _77  and  _78
REMARK   34  A    between atoms: _77  and  _80
REMARK   35  A    between atoms: _80  and  _81
REMARK   36  A    between atoms: _87  and  _89
REMARK   37  A    between atoms: _89  and  _90
REMARK   38  A    between atoms: _89  and  _92
REMARK   39  A    between atoms: _92  and  _93
REMARK   40  A    between atoms: _96  and  _98
REMARK   41  A    between atoms: _98  and  _99
REMARK   42  A    between atoms: _98  and  _101
REMARK   43  A    between atoms: _101  and  _102
REMARK   44  A    between atoms: _105  and  _107
REMARK   45  A    between atoms: _107  and  _108
REMARK   46  A    between atoms: _110  and  _112
REMARK   47  A    between atoms: _112  and  _113
REMARK   48  A    between atoms: _112  and  _115
REMARK   49  A    between atoms: _115  and  _116
REMARK   50  A    between atoms: _118  and  _120
REMARK   51  A    between atoms: _120  and  _121
REMARK   52  A    between atoms: _120  and  _123
REMARK   53  A    between atoms: _123  and  _124
REMARK   54  A    between atoms: _126  and  _128
REMARK   55  A    between atoms: _128  and  _129
REMARK   56  A    between atoms: _128  and  _131
REMARK   57  A    between atoms: _131  and  _132
REMARK   58  A    between atoms: _135  and  _137
REMARK   59  A    between atoms: _137  and  _138
REMARK   60  A    between atoms: _137  and  _140
REMARK   61  A    between atoms: _140  and  _141
REMARK   62  A    between atoms: _151  and  _153
REMARK   63  A    between atoms: _153  and  _154
REMARK   64  A    between atoms: _153  and  _156
REMARK   65  A    between atoms: _156  and  _157
REMARK   66  A    between atoms: _159  and  _161
REMARK   67  A    between atoms: _161  and  _162
REMARK   68  A    between atoms: _161  and  _164
REMARK   69  A    between atoms: _164  and  _165
REMARK   70  A    between atoms: _168  and  _170
REMARK   71  A    between atoms: _170  and  _171
REMARK   72  A    between atoms: _170  and  _173
REMARK   73  A    between atoms: _173  and  _174
REMARK   74  A    between atoms: _176  and  _178
REMARK   75  A    between atoms: _178  and  _179
REMARK   76  A    between atoms: _178  and  _181
REMARK   77  A    between atoms: _181  and  _182
REMARK   78  A    between atoms: _187  and  _188
REMARK   79  A    between atoms: _190  and  _192
REMARK   80  A    between atoms: _192  and  _193
REMARK   81  A    between atoms: _195  and  _197
REMARK   82  A    between atoms: _197  and  _198
REMARK   83  A    between atoms: _197  and  _200
REMARK   84  A    between atoms: _200  and  _201
REMARK   85  A    between atoms: _204  and  _206
REMARK   86  A    between atoms: _206  and  _207
REMARK   87  A    between atoms: _209  and  _211
REMARK   88  A    between atoms: _211  and  _212
REMARK   89  A    between atoms: _211  and  _214
REMARK   90  A    between atoms: _214  and  _215
REMARK   91  A    between atoms: _217  and  _219
REMARK   92  A    between atoms: _219  and  _220
REMARK   93  A    between atoms: _219  and  _222
REMARK   94  A    between atoms: _222  and  _223
REMARK   95  A    between atoms: _225  and  _227
REMARK   96  A    between atoms: _227  and  _228
REMARK   97  A    between atoms: _227  and  _230
REMARK   98  A    between atoms: _230  and  _231
REMARK   99  A    between atoms: _233  and  _235
REMARK  100  A    between atoms: _235  and  _236
REMARK  101  A    between atoms: _235  and  _238
REMARK  102  A    between atoms: _238  and  _239
REMARK  103  A    between atoms: _241  and  _243
REMARK  104  A    between atoms: _243  and  _244
REMARK  105  A    between atoms: _243  and  _246
REMARK  106  A    between atoms: _246  and  _247
REMARK  107  A    between atoms: _253  and  _255
REMARK  108  A    between atoms: _255  and  _256
REMARK  109  A    between atoms: _255  and  _258
REMARK  110  A    between atoms: _258  and  _259
REMARK  111  A    between atoms: _259  and  _260
REMARK  112  A    between atoms: _263  and  _265
REMARK  113  A    between atoms: _265  and  _266
REMARK  114  A    between atoms: _265  and  _268
REMARK  115  A    between atoms: _268  and  _269
REMARK  116  A    between atoms: _272  and  _274
REMARK  117  A    between atoms: _274  and  _275
REMARK  118  A    between atoms: _274  and  _277
REMARK  119  A    between atoms: _277  and  _278
REMARK  120  A    between atoms: _280  and  _282
REMARK  121  A    between atoms: _282  and  _283
REMARK  122  A    between atoms: _282  and  _285
REMARK  123  A    between atoms: _285  and  _286
REMARK  124  A    between atoms: _289  and  _291
REMARK  125  A    between atoms: _291  and  _292
REMARK  126  A    between atoms: _291  and  _294
REMARK  127  A    between atoms: _294  and  _295
REMARK  128  A    between atoms: _298  and  _300
REMARK  129  A    between atoms: _300  and  _301
REMARK  130  A    between atoms: _303  and  _305
REMARK  131  A    between atoms: _305  and  _306
REMARK  132  A    between atoms: _305  and  _308
REMARK  133  A    between atoms: _308  and  _309
REMARK  134  A    between atoms: _312  and  _314
REMARK  135  A    between atoms: _314  and  _315
REMARK  136  A    between atoms: _314  and  _317
REMARK  137  A    between atoms: _317  and  _318
REMARK  138  A    between atoms: _321  and  _323
REMARK  139  A    between atoms: _323  and  _324
REMARK  140  A    between atoms: _323  and  _326
REMARK  141  A    between atoms: _326  and  _327
REMARK  142  A    between atoms: _330  and  _332
REMARK  143  A    between atoms: _332  and  _333
REMARK  144  A    between atoms: _336  and  _338
REMARK  145  A    between atoms: _338  and  _339
REMARK  146  A    between atoms: _338  and  _341
REMARK  147  A    between atoms: _341  and  _342
REMARK  148  A    between atoms: _348  and  _350
REMARK  149  A    between atoms: _350  and  _351
REMARK  150  A    between atoms: _350  and  _353
REMARK  151  A    between atoms: _353  and  _354
REMARK  152  A    between atoms: _356  and  _358
REMARK  153  A    between atoms: _358  and  _359
REMARK  154  A    between atoms: _358  and  _361
REMARK  155  A    between atoms: _361  and  _362
REMARK  156  A    between atoms: _365  and  _367
REMARK  157  A    between atoms: _367  and  _368
REMARK  158  A    between atoms: _367  and  _370
REMARK  159  A    between atoms: _370  and  _371
REMARK  160  A    between atoms: _374  and  _376
REMARK  161  A    between atoms: _376  and  _377
REMARK  162  A    between atoms: _376  and  _379
REMARK  163  A    between atoms: _379  and  _380
REMARK  164  A    between atoms: _385  and  _387
REMARK  165  A    between atoms: _387  and  _388
REMARK  166  A    between atoms: _387  and  _390
REMARK  167  A    between atoms: _390  and  _391
REMARK  168  A    between atoms: _394  and  _396
REMARK  169  A    between atoms: _396  and  _397
REMARK  170  A    between atoms: _396  and  _399
REMARK  171  A    between atoms: _402  and  _404
REMARK  172  A    between atoms: _404  and  _405
REMARK  173  A    between atoms: _404  and  _407
REMARK  174  A    between atoms: _407  and  _408
REMARK  175  A    between atoms: _408  and  _409
REMARK  176  A    between atoms: _414  and  _416
REMARK  177  A    between atoms: _416  and  _417
REMARK  178  A    between atoms: _416  and  _419
REMARK  179  A    between atoms: _419  and  _420
REMARK  180  A    between atoms: _420  and  _421
REMARK  181  A    between atoms: _426  and  _428
REMARK  182  A    between atoms: _428  and  _429
REMARK  183  A    between atoms: _428  and  _431
REMARK  184  A    between atoms: _431  and  _432
REMARK  185  A    between atoms: _438  and  _440
REMARK  186  A    between atoms: _440  and  _441
REMARK  187  A    between atoms: _440  and  _443
REMARK  188  A    between atoms: _443  and  _444
REMARK  189  A    between atoms: _454  and  _456
REMARK  190  A    between atoms: _456  and  _457
REMARK  191  A    between atoms: _459  and  _461
REMARK  192  A    between atoms: _461  and  _462
REMARK  193  A    between atoms: _461  and  _464
REMARK  194  A    between atoms: _464  and  _465
REMARK  195  A    between atoms: _468  and  _470
REMARK  196  A    between atoms: _470  and  _471
REMARK  197  A    between atoms: _474  and  _476
REMARK  198  A    between atoms: _476  and  _477
REMARK  199  A    between atoms: _476  and  _479
REMARK  200  A    between atoms: _479  and  _480
REMARK  201  A    between atoms: _483  and  _485
REMARK  202  A    between atoms: _485  and  _486
REMARK  203  A    between atoms: _485  and  _488
REMARK  204  A    between atoms: _488  and  _489
REMARK  205  A    between atoms: _492  and  _494
REMARK  206  A    between atoms: _494  and  _495
REMARK  207  A    between atoms: _497  and  _499
REMARK  208  A    between atoms: _499  and  _500
REMARK  209  A    between atoms: _499  and  _502
REMARK  210  A    between atoms: _502  and  _503
REMARK  211  A    between atoms: _506  and  _508
REMARK  212  A    between atoms: _508  and  _509
REMARK  213  A    between atoms: _508  and  _511
REMARK  214  A    between atoms: _511  and  _512
REMARK  215  A    between atoms: _515  and  _517
REMARK  216  A    between atoms: _517  and  _518
REMARK  217  A    between atoms: _517  and  _520
REMARK  218  A    between atoms: _520  and  _521
REMARK  219  A    between atoms: _524  and  _526
REMARK  220  A    between atoms: _526  and  _527
REMARK  221  A    between atoms: _526  and  _529
REMARK  222  A    between atoms: _529  and  _530
REMARK  223  A    between atoms: _533  and  _535
REMARK  224  A    between atoms: _535  and  _536
REMARK  225  A    between atoms: _535  and  _538
REMARK  226  A    between atoms: _538  and  _539
REMARK  227  A    between atoms: _544  and  _545
REMARK  228  A    between atoms: _547  and  _549
REMARK  229  A    between atoms: _549  and  _550
REMARK  230  A    between atoms: _549  and  _552
REMARK  231  A    between atoms: _555  and  _557
REMARK  232  A    between atoms: _557  and  _558
REMARK  233  A    between atoms: _560  and  _562
REMARK  234  A    between atoms: _562  and  _563
REMARK  235  A    between atoms: _562  and  _565
REMARK  236  A    between atoms: _565  and  _566
REMARK  237  A    between atoms: _572  and  _574
REMARK  238  A    between atoms: _574  and  _575
REMARK  239  A    between atoms: _574  and  _577
REMARK  240  A    between atoms: _577  and  _578
REMARK  241  A    between atoms: _584  and  _586
REMARK  242  A    between atoms: _586  and  _587
REMARK  243  A    between atoms: _589  and  _591
REMARK  244  A    between atoms: _591  and  _592
REMARK  245  A    between atoms: _594  and  _596
REMARK  246  A    between atoms: _596  and  _597
REMARK  247  A    between atoms: _596  and  _599
REMARK  248  A    between atoms: _599  and  _600
REMARK  249  A    between atoms: _600  and  _601
REMARK  250  A    between atoms: _606  and  _608
REMARK  251  A    between atoms: _608  and  _609
REMARK  252  A    between atoms: _608  and  _611
REMARK  253  A    between atoms: _611  and  _612
REMARK  254  A    between atoms: _614  and  _616
REMARK  255  A    between atoms: _616  and  _617
REMARK  256  A    between atoms: _619  and  _621
REMARK  257  A    between atoms: _621  and  _622
REMARK  258  A    between atoms: _621  and  _624
REMARK  259  A    between atoms: _624  and  _625
REMARK  260  A    between atoms: _628  and  _630
REMARK  261  A    between atoms: _630  and  _631
REMARK  262  A    between atoms: _633  and  _635
REMARK  263  A    between atoms: _635  and  _636
REMARK  264  A    between atoms: _635  and  _638
REMARK  265  A    between atoms: _638  and  _639
REMARK  266  A    between atoms: _642  and  _644
REMARK  267  A    between atoms: _644  and  _645
REMARK  268  A    between atoms: _644  and  _647
REMARK  269  A    between atoms: _647  and  _648
REMARK  270  A    between atoms: _653  and  _655
REMARK  271  A    between atoms: _655  and  _656
REMARK  272  A    between atoms: _655  and  _658
REMARK  273  A    between atoms: _658  and  _659
REMARK  274  A    between atoms: _662  and  _664
REMARK  275  A    between atoms: _664  and  _665
REMARK  276  A    between atoms: _664  and  _667
REMARK  277  A    between atoms: _667  and  _668
REMARK  278  A    between atoms: _674  and  _676
REMARK  279  A    between atoms: _676  and  _677
REMARK  280  A    between atoms: _679  and  _681
REMARK  281  A    between atoms: _681  and  _682
REMARK  282  A    between atoms: _681  and  _684
REMARK  283  A    between atoms: _684  and  _685
REMARK                            x       y       z     vdW  Elec       q    Type
REMARK                         _______ _______ _______ _____ _____    ______ ____
ROOT
ATOM      1  O   HOH     1       3.702  24.728  24.837  0.00  0.00    +0.000 OA
ENDROOT
TORSDOF 0
REMARK  Name = ../refined-set-2016/5er2/5er2_pocket.pdb
REMARK  283 active torsions:
REMARK  status: ('A' for Active; 'I' for Inactive)
REMARK    1  A    between atoms: _1  and  _3
REMARK    2  A    between atoms: _3  and  _4
REMARK    3  A    between atoms: _3  and  _6
REMARK    4  A    between atoms: _6  and  _7
REMARK    5  A    between atoms: _10  and  _12
REMARK    6  A    between atoms: _12  and  _13
REMARK    7  A    between atoms: _12  and  _15
REMARK    8  A    between atoms: _15  and  _16
REMARK    9  A    between atoms: _19  and  _21
REMARK   10  A    between atoms: _21  and  _22
REMARK   11  A    between atoms: _21  and  _24
REMARK   12  A    between atoms: _24  and  _25
REMARK   13  A    between atoms: _28  and  _30
REMARK   14  A    between atoms: _30  and  _31
REMARK   15  A    between atoms: _30  and  _33
REMARK   16  A    between atoms: _33  and  _34
REMARK   17  A    between atoms: _37  and  _39
REMARK   18  A    between atoms: _39  and  _40
REMARK   19  A    between atoms: _39  and  _42
REMARK   20  A    between atoms: _42  and  _43
REMARK   21  A    between atoms: _46  and  _48
REMARK   22  A    between atoms: _48  and  _49
REMARK   23  A    between atoms: _52  and  _54
REMARK   24  A    between atoms: _54  and  _55
REMARK   25  A    between atoms: _54  and  _57
REMARK   26  A    between atoms: _57  and  _58
REMARK   27  A    between atoms: _63  and  _64
REMARK   28  A    between atoms: _66  and  _68
REMARK   29  A    between atoms: _68  and  _69
REMARK   30  A    between atoms: _68  and  _71
REMARK   31  A    between atoms: _71  and  _72
REMARK   32  A    between atoms: _75  and  _77
REMARK   33  A    between atoms: _77  and  _78
REMARK   34  A    between atoms: _77  and  _80
REMARK   35  A    between atoms: _80  and  _81
REMARK   36  A    between atoms: _87  and  _89
REMARK   37  A    between atoms: _89  and  _90
REMARK   38  A    between atoms: _89  and  _92
REMARK   39  A    between atoms: _92  and  _93
REMARK   40  A    between atoms: _96  and  _98
REMARK   41  A    between atoms: _98  and  _99
REMARK   42  A    between atoms: _98  and  _101
REMARK   43  A    between atoms: _101  and  _102
REMARK   44  A    between atoms: _105  and  _107
REMARK   45  A    between atoms: _107  and  _108
REMARK   46  A    between atoms: _110  and  _112
REMARK   47  A    between atoms: _112  and  _113
REMARK   48  A    between atoms: _112  and  _115
REMARK   49  A    between atoms: _115  and  _116
REMARK   50  A    between atoms: _118  and  _120
REMARK   51  A    between atoms: _120  and  _121
REMARK   52  A    between atoms: _120  and  _123
REMARK   53  A    between atoms: _123  and  _124
REMARK   54  A    between atoms: _126  and  _128
REMARK   55  A    between atoms: _128  and  _129
REMARK   56  A    between atoms: _128  and  _131
REMARK   57  A    between atoms: _131  and  _132
REMARK   58  A    between atoms: _135  and  _137
REMARK   59  A    between atoms: _137  and  _138
REMARK   60  A    between atoms: _137  and  _140
REMARK   61  A    between atoms: _140  and  _141
REMARK   62  A    between atoms: _151  and  _153
REMARK   63  A    between atoms: _153  and  _154
REMARK   64  A    between atoms: _153  and  _156
REMARK   65  A    between atoms: _156  and  _157
REMARK   66  A    between atoms: _159  and  _161
REMARK   67  A    between atoms: _161  and  _162
REMARK   68  A    between atoms: _161  and  _164
REMARK   69  A    between atoms: _164  and  _165
REMARK   70  A    between atoms: _168  and  _170
REMARK   71  A    between atoms: _170  and  _171
REMARK   72  A    between atoms: _170  and  _173
REMARK   73  A    between atoms: _173  and  _174
REMARK   74  A    between atoms: _176  and  _178
REMARK   75  A    between atoms: _178  and  _179
REMARK   76  A    between atoms: _178  and  _181
REMARK   77  A    between atoms: _181  and  _182
REMARK   78  A    between atoms: _187  and  _188
REMARK   79  A    between atoms: _190  and  _192
REMARK   80  A    between atoms: _192  and  _193
REMARK   81  A    between atoms: _195  and  _197
REMARK   82  A    between atoms: _197  and  _198
REMARK   83  A    between atoms: _197  and  _200
REMARK   84  A    between atoms: _200  and  _201
REMARK   85  A    between atoms: _204  and  _206
REMARK   86  A    between atoms: _206  and  _207
REMARK   87  A    between atoms: _209  and  _211
REMARK   88  A    between atoms: _211  and  _212
REMARK   89  A    between atoms: _211  and  _214
REMARK   90  A    between atoms: _214  and  _215
REMARK   91  A    between atoms: _217  and  _219
REMARK   92  A    between atoms: _219  and  _220
REMARK   93  A    between atoms: _219  and  _222
REMARK   94  A    between atoms: _222  and  _223
REMARK   95  A    between atoms: _225  and  _227
REMARK   96  A    between atoms: _227  and  _228
REMARK   97  A    between atoms: _227  and  _230
REMARK   98  A    between atoms: _230  and  _231
REMARK   99  A    between atoms: _233  and  _235
REMARK  100  A    between atoms: _235  and  _236
REMARK  101  A    between atoms: _235  and  _238
REMARK  102  A    between atoms: _238  and  _239
REMARK  103  A    between atoms: _241  and  _243
REMARK  104  A    between atoms: _243  and  _244
REMARK  105  A    between atoms: _243  and  _246
REMARK  106  A    between atoms: _246  and  _247
REMARK  107  A    between atoms: _253  and  _255
REMARK  108  A    between atoms: _255  and  _256
REMARK  109  A    between atoms: _255  and  _258
REMARK  110  A    between atoms: _258  and  _259
REMARK  111  A    between atoms: _259  and  _260
REMARK  112  A    between atoms: _263  and  _265
REMARK  113  A    between atoms: _265  and  _266
REMARK  114  A    between atoms: _265  and  _268
REMARK  115  A    between atoms: _268  and  _269
REMARK  116  A    between atoms: _272  and  _274
REMARK  117  A    between atoms: _274  and  _275
REMARK  118  A    between atoms: _274  and  _277
REMARK  119  A    between atoms: _277  and  _278
REMARK  120  A    between atoms: _280  and  _282
REMARK  121  A    between atoms: _282  and  _283
REMARK  122  A    between atoms: _282  and  _285
REMARK  123  A    between atoms: _285  and  _286
REMARK  124  A    between atoms: _289  and  _291
REMARK  125  A    between atoms: _291  and  _292
REMARK  126  A    between atoms: _291  and  _294
REMARK  127  A    between atoms: _294  and  _295
REMARK  128  A    between atoms: _298  and  _300
REMARK  129  A    between atoms: _300  and  _301
REMARK  130  A    between atoms: _303  and  _305
REMARK  131  A    between atoms: _305  and  _306
REMARK  132  A    between atoms: _305  and  _308
REMARK  133  A    between atoms: _308  and  _309
REMARK  134  A    between atoms: _312  and  _314
REMARK  135  A    between atoms: _314  and  _315
REMARK  136  A    between atoms: _314  and  _317
REMARK  137  A    between atoms: _317  and  _318
REMARK  138  A    between atoms: _321  and  _323
REMARK  139  A    between atoms: _323  and  _324
REMARK  140  A    between atoms: _323  and  _326
REMARK  141  A    between atoms: _326  and  _327
REMARK  142  A    between atoms: _330  and  _332
REMARK  143  A    between atoms: _332  and  _333
REMARK  144  A    between atoms: _336  and  _338
REMARK  145  A    between atoms: _338  and  _339
REMARK  146  A    between atoms: _338  and  _341
REMARK  147  A    between atoms: _341  and  _342
REMARK  148  A    between atoms: _348  and  _350
REMARK  149  A    between atoms: _350  and  _351
REMARK  150  A    between atoms: _350  and  _353
REMARK  151  A    between atoms: _353  and  _354
REMARK  152  A    between atoms: _356  and  _358
REMARK  153  A    between atoms: _358  and  _359
REMARK  154  A    between atoms: _358  and  _361
REMARK  155  A    between atoms: _361  and  _362
REMARK  156  A    between atoms: _365  and  _367
REMARK  157  A    between atoms: _367  and  _368
REMARK  158  A    between atoms: _367  and  _370
REMARK  159  A    between atoms: _370  and  _371
REMARK  160  A    between atoms: _374  and  _376
REMARK  161  A    between atoms: _376  and  _377
REMARK  162  A    between atoms: _376  and  _379
REMARK  163  A    between atoms: _379  and  _380
REMARK  164  A    between atoms: _385  and  _387
REMARK  165  A    between atoms: _387  and  _388
REMARK  166  A    between atoms: _387  and  _390
REMARK  167  A    between atoms: _390  and  _391
REMARK  168  A    between atoms: _394  and  _396
REMARK  169  A    between atoms: _396  and  _397
REMARK  170  A    between atoms: _396  and  _399
REMARK  171  A    between atoms: _402  and  _404
REMARK  172  A    between atoms: _404  and  _405
REMARK  173  A    between atoms: _404  and  _407
REMARK  174  A    between atoms: _407  and  _408
REMARK  175  A    between atoms: _408  and  _409
REMARK  176  A    between atoms: _414  and  _416
REMARK  177  A    between atoms: _416  and  _417
REMARK  178  A    between atoms: _416  and  _419
REMARK  179  A    between atoms: _419  and  _420
REMARK  180  A    between atoms: _420  and  _421
REMARK  181  A    between atoms: _426  and  _428
REMARK  182  A    between atoms: _428  and  _429
REMARK  183  A    between atoms: _428  and  _431
REMARK  184  A    between atoms: _431  and  _432
REMARK  185  A    between atoms: _438  and  _440
REMARK  186  A    between atoms: _440  and  _441
REMARK  187  A    between atoms: _440  and  _443
REMARK  188  A    between atoms: _443  and  _444
REMARK  189  A    between atoms: _454  and  _456
REMARK  190  A    between atoms: _456  and  _457
REMARK  191  A    between atoms: _459  and  _461
REMARK  192  A    between atoms: _461  and  _462
REMARK  193  A    between atoms: _461  and  _464
REMARK  194  A    between atoms: _464  and  _465
REMARK  195  A    between atoms: _468  and  _470
REMARK  196  A    between atoms: _470  and  _471
REMARK  197  A    between atoms: _474  and  _476
REMARK  198  A    between atoms: _476  and  _477
REMARK  199  A    between atoms: _476  and  _479
REMARK  200  A    between atoms: _479  and  _480
REMARK  201  A    between atoms: _483  and  _485
REMARK  202  A    between atoms: _485  and  _486
REMARK  203  A    between atoms: _485  and  _488
REMARK  204  A    between atoms: _488  and  _489
REMARK  205  A    between atoms: _492  and  _494
REMARK  206  A    between atoms: _494  and  _495
REMARK  207  A    between atoms: _497  and  _499
REMARK  208  A    between atoms: _499  and  _500
REMARK  209  A    between atoms: _499  and  _502
REMARK  210  A    between atoms: _502  and  _503
REMARK  211  A    between atoms: _506  and  _508
REMARK  212  A    between atoms: _508  and  _509
REMARK  213  A    between atoms: _508  and  _511
REMARK  214  A    between atoms: _511  and  _512
REMARK  215  A    between atoms: _515  and  _517
REMARK  216  A    between atoms: _517  and  _518
REMARK  217  A    between atoms: _517  and  _520
REMARK  218  A    between atoms: _520  and  _521
REMARK  219  A    between atoms: _524  and  _526
REMARK  220  A    between atoms: _526  and  _527
REMARK  221  A    between atoms: _526  and  _529
REMARK  222  A    between atoms: _529  and  _530
REMARK  223  A    between atoms: _533  and  _535
REMARK  224  A    between atoms: _535  and  _536
REMARK  225  A    between atoms: _535  and  _538
REMARK  226  A    between atoms: _538  and  _539
REMARK  227  A    between atoms: _544  and  _545
REMARK  228  A    between atoms: _547  and  _549
REMARK  229  A    between atoms: _549  and  _550
REMARK  230  A    between atoms: _549  and  _552
REMARK  231  A    between atoms: _555  and  _557
REMARK  232  A    between atoms: _557  and  _558
REMARK  233  A    between atoms: _560  and  _562
REMARK  234  A    between atoms: _562  and  _563
REMARK  235  A    between atoms: _562  and  _565
REMARK  236  A    between atoms: _565  and  _566
REMARK  237  A    between atoms: _572  and  _574
REMARK  238  A    between atoms: _574  and  _575
REMARK  239  A    between atoms: _574  and  _577
REMARK  240  A    between atoms: _577  and  _578
REMARK  241  A    between atoms: _584  and  _586
REMARK  242  A    between atoms: _586  and  _587
REMARK  243  A    between atoms: _589  and  _591
REMARK  244  A    between atoms: _591  and  _592
REMARK  245  A    between atoms: _594  and  _596
REMARK  246  A    between atoms: _596  and  _597
REMARK  247  A    between atoms: _596  and  _599
REMARK  248  A    between atoms: _599  and  _600
REMARK  249  A    between atoms: _600  and  _601
REMARK  250  A    between atoms: _606  and  _608
REMARK  251  A    between atoms: _608  and  _609
REMARK  252  A    between atoms: _608  and  _611
REMARK  253  A    between atoms: _611  and  _612
REMARK  254  A    between atoms: _614  and  _616
REMARK  255  A    between atoms: _616  and  _617
REMARK  256  A    between atoms: _619  and  _621
REMARK  257  A    between atoms: _621  and  _622
REMARK  258  A    between atoms: _621  and  _624
REMARK  259  A    between atoms: _624  and  _625
REMARK  260  A    between atoms: _628  and  _630
REMARK  261  A    between atoms: _630  and  _631
REMARK  262  A    between atoms: _633  and  _635
REMARK  263  A    between atoms: _635  and  _636
REMARK  264  A    between atoms: _635  and  _638
REMARK  265  A    between atoms: _638  and  _639
REMARK  266  A    between atoms: _642  and  _644
REMARK  267  A    between atoms: _644  and  _645
REMARK  268  A    between atoms: _644  and  _647
REMARK  269  A    between atoms: _647  and  _648
REMARK  270  A    between atoms: _653  and  _655
REMARK  271  A    between atoms: _655  and  _656
REMARK  272  A    between atoms: _655  and  _658
REMARK  273  A    between atoms: _658  and  _659
REMARK  274  A    between atoms: _662  and  _664
REMARK  275  A    between atoms: _664  and  _665
REMARK  276  A    between atoms: _664  and  _667
REMARK  277  A    between atoms: _667  and  _668
REMARK  278  A    between atoms: _674  and  _676
REMARK  279  A    between atoms: _676  and  _677
REMARK  280  A    between atoms: _679  and  _681
REMARK  281  A    between atoms: _681  and  _682
REMARK  282  A    between atoms: _681  and  _684
REMARK  283  A    between atoms: _684  and  _685
REMARK                            x       y       z     vdW  Elec       q    Type
REMARK                         _______ _______ _______ _____ _____    ______ ____
ROOT
ATOM      1  O   HOH     1       4.409  22.041  23.368  0.00  0.00    +0.000 OA
ENDROOT
TORSDOF 0
REMARK  Name = ../refined-set-2016/5er2/5er2_pocket.pdb
REMARK  283 active torsions:
REMARK  status: ('A' for Active; 'I' for Inactive)
REMARK    1  A    between atoms: _1  and  _3
REMARK    2  A    between atoms: _3  and  _4
REMARK    3  A    between atoms: _3  and  _6
REMARK    4  A    between atoms: _6  and  _7
REMARK    5  A    between atoms: _10  and  _12
REMARK    6  A    between atoms: _12  and  _13
REMARK    7  A    between atoms: _12  and  _15
REMARK    8  A    between atoms: _15  and  _16
REMARK    9  A    between atoms: _19  and  _21
REMARK   10  A    between atoms: _21  and  _22
REMARK   11  A    between atoms: _21  and  _24
REMARK   12  A    between atoms: _24  and  _25
REMARK   13  A    between atoms: _28  and  _30
REMARK   14  A    between atoms: _30  and  _31
REMARK   15  A    between atoms: _30  and  _33
REMARK   16  A    between atoms: _33  and  _34
REMARK   17  A    between atoms: _37  and  _39
REMARK   18  A    between atoms: _39  and  _40
REMARK   19  A    between atoms: _39  and  _42
REMARK   20  A    between atoms: _42  and  _43
REMARK   21  A    between atoms: _46  and  _48
REMARK   22  A    between atoms: _48  and  _49
REMARK   23  A    between atoms: _52  and  _54
REMARK   24  A    between atoms: _54  and  _55
REMARK   25  A    between atoms: _54  and  _57
REMARK   26  A    between atoms: _57  and  _58
REMARK   27  A    between atoms: _63  and  _64
REMARK   28  A    between atoms: _66  and  _68
REMARK   29  A    between atoms: _68  and  _69
REMARK   30  A    between atoms: _68  and  _71
REMARK   31  A    between atoms: _71  and  _72
REMARK   32  A    between atoms: _75  and  _77
REMARK   33  A    between atoms: _77  and  _78
REMARK   34  A    between atoms: _77  and  _80
REMARK   35  A    between atoms: _80  and  _81
REMARK   36  A    between atoms: _87  and  _89
REMARK   37  A    between atoms: _89  and  _90
REMARK   38  A    between atoms: _89  and  _92
REMARK   39  A    between atoms: _92  and  _93
REMARK   40  A    between atoms: _96  and  _98
REMARK   41  A    between atoms: _98  and  _99
REMARK   42  A    between atoms: _98  and  _101
REMARK   43  A    between atoms: _101  and  _102
REMARK   44  A    between atoms: _105  and  _107
REMARK   45  A    between atoms: _107  and  _108
REMARK   46  A    between atoms: _110  and  _112
REMARK   47  A    between atoms: _112  and  _113
REMARK   48  A    between atoms: _112  and  _115
REMARK   49  A    between atoms: _115  and  _116
REMARK   50  A    between atoms: _118  and  _120
REMARK   51  A    between atoms: _120  and  _121
REMARK   52  A    between atoms: _120  and  _123
REMARK   53  A    between atoms: _123  and  _124
REMARK   54  A    between atoms: _126  and  _128
REMARK   55  A    between atoms: _128  and  _129
REMARK   56  A    between atoms: _128  and  _131
REMARK   57  A    between atoms: _131  and  _132
REMARK   58  A    between atoms: _135  and  _137
REMARK   59  A    between atoms: _137  and  _138
REMARK   60  A    between atoms: _137  and  _140
REMARK   61  A    between atoms: _140  and  _141
REMARK   62  A    between atoms: _151  and  _153
REMARK   63  A    between atoms: _153  and  _154
REMARK   64  A    between atoms: _153  and  _156
REMARK   65  A    between atoms: _156  and  _157
REMARK   66  A    between atoms: _159  and  _161
REMARK   67  A    between atoms: _161  and  _162
REMARK   68  A    between atoms: _161  and  _164
REMARK   69  A    between atoms: _164  and  _165
REMARK   70  A    between atoms: _168  and  _170
REMARK   71  A    between atoms: _170  and  _171
REMARK   72  A    between atoms: _170  and  _173
REMARK   73  A    between atoms: _173  and  _174
REMARK   74  A    between atoms: _176  and  _178
REMARK   75  A    between atoms: _178  and  _179
REMARK   76  A    between atoms: _178  and  _181
REMARK   77  A    between atoms: _181  and  _182
REMARK   78  A    between atoms: _187  and  _188
REMARK   79  A    between atoms: _190  and  _192
REMARK   80  A    between atoms: _192  and  _193
REMARK   81  A    between atoms: _195  and  _197
REMARK   82  A    between atoms: _197  and  _198
REMARK   83  A    between atoms: _197  and  _200
REMARK   84  A    between atoms: _200  and  _201
REMARK   85  A    between atoms: _204  and  _206
REMARK   86  A    between atoms: _206  and  _207
REMARK   87  A    between atoms: _209  and  _211
REMARK   88  A    between atoms: _211  and  _212
REMARK   89  A    between atoms: _211  and  _214
REMARK   90  A    between atoms: _214  and  _215
REMARK   91  A    between atoms: _217  and  _219
REMARK   92  A    between atoms: _219  and  _220
REMARK   93  A    between atoms: _219  and  _222
REMARK   94  A    between atoms: _222  and  _223
REMARK   95  A    between atoms: _225  and  _227
REMARK   96  A    between atoms: _227  and  _228
REMARK   97  A    between atoms: _227  and  _230
REMARK   98  A    between atoms: _230  and  _231
REMARK   99  A    between atoms: _233  and  _235
REMARK  100  A    between atoms: _235  and  _236
REMARK  101  A    between atoms: _235  and  _238
REMARK  102  A    between atoms: _238  and  _239
REMARK  103  A    between atoms: _241  and  _243
REMARK  104  A    between atoms: _243  and  _244
REMARK  105  A    between atoms: _243  and  _246
REMARK  106  A    between atoms: _246  and  _247
REMARK  107  A    between atoms: _253  and  _255
REMARK  108  A    between atoms: _255  and  _256
REMARK  109  A    between atoms: _255  and  _258
REMARK  110  A    between atoms: _258  and  _259
REMARK  111  A    between atoms: _259  and  _260
REMARK  112  A    between atoms: _263  and  _265
REMARK  113  A    between atoms: _265  and  _266
REMARK  114  A    between atoms: _265  and  _268
REMARK  115  A    between atoms: _268  and  _269
REMARK  116  A    between atoms: _272  and  _274
REMARK  117  A    between atoms: _274  and  _275
REMARK  118  A    between atoms: _274  and  _277
REMARK  119  A    between atoms: _277  and  _278
REMARK  120  A    between atoms: _280  and  _282
REMARK  121  A    between atoms: _282  and  _283
REMARK  122  A    between atoms: _282  and  _285
REMARK  123  A    between atoms: _285  and  _286
REMARK  124  A    between atoms: _289  and  _291
REMARK  125  A    between atoms: _291  and  _292
REMARK  126  A    between atoms: _291  and  _294
REMARK  127  A    between atoms: _294  and  _295
REMARK  128  A    between atoms: _298  and  _300
REMARK  129  A    between atoms: _300  and  _301
REMARK  130  A    between atoms: _303  and  _305
REMARK  131  A    between atoms: _305  and  _306
REMARK  132  A    between atoms: _305  and  _308
REMARK  133  A    between atoms: _308  and  _309
REMARK  134  A    between atoms: _312  and  _314
REMARK  135  A    between atoms: _314  and  _315
REMARK  136  A    between atoms: _314  and  _317
REMARK  137  A    between atoms: _317  and  _318
REMARK  138  A    between atoms: _321  and  _323
REMARK  139  A    between atoms: _323  and  _324
REMARK  140  A    between atoms: _323  and  _326
REMARK  141  A    between atoms: _326  and  _327
REMARK  142  A    between atoms: _330  and  _332
REMARK  143  A    between atoms: _332  and  _333
REMARK  144  A    between atoms: _336  and  _338
REMARK  145  A    between atoms: _338  and  _339
REMARK  146  A    between atoms: _338  and  _341
REMARK  147  A    between atoms: _341  and  _342
REMARK  148  A    between atoms: _348  and  _350
REMARK  149  A    between atoms: _350  and  _351
REMARK  150  A    between atoms: _350  and  _353
REMARK  151  A    between atoms: _353  and  _354
REMARK  152  A    between atoms: _356  and  _358
REMARK  153  A    between atoms: _358  and  _359
REMARK  154  A    between atoms: _358  and  _361
REMARK  155  A    between atoms: _361  and  _362
REMARK  156  A    between atoms: _365  and  _367
REMARK  157  A    between atoms: _367  and  _368
REMARK  158  A    between atoms: _367  and  _370
REMARK  159  A    between atoms: _370  and  _371
REMARK  160  A    between atoms: _374  and  _376
REMARK  161  A    between atoms: _376  and  _377
REMARK  162  A    between atoms: _376  and  _379
REMARK  163  A    between atoms: _379  and  _380
REMARK  164  A    between atoms: _385  and  _387
REMARK  165  A    between atoms: _387  and  _388
REMARK  166  A    between atoms: _387  and  _390
REMARK  167  A    between atoms: _390  and  _391
REMARK  168  A    between atoms: _394  and  _396
REMARK  169  A    between atoms: _396  and  _397
REMARK  170  A    between atoms: _396  and  _399
REMARK  171  A    between atoms: _402  and  _404
REMARK  172  A    between atoms: _404  and  _405
REMARK  173  A    between atoms: _404  and  _407
REMARK  174  A    between atoms: _407  and  _408
REMARK  175  A    between atoms: _408  and  _409
REMARK  176  A    between atoms: _414  and  _416
REMARK  177  A    between atoms: _416  and  _417
REMARK  178  A    between atoms: _416  and  _419
REMARK  179  A    between atoms: _419  and  _420
REMARK  180  A    between atoms: _420  and  _421
REMARK  181  A    between atoms: _426  and  _428
REMARK  182  A    between atoms: _428  and  _429
REMARK  183  A    between atoms: _428  and  _431
REMARK  184  A    between atoms: _431  and  _432
REMARK  185  A    between atoms: _438  and  _440
REMARK  186  A    between atoms: _440  and  _441
REMARK  187  A    between atoms: _440  and  _443
REMARK  188  A    between atoms: _443  and  _444
REMARK  189  A    between atoms: _454  and  _456
REMARK  190  A    between atoms: _456  and  _457
REMARK  191  A    between atoms: _459  and  _461
REMARK  192  A    between atoms: _461  and  _462
REMARK  193  A    between atoms: _461  and  _464
REMARK  194  A    between atoms: _464  and  _465
REMARK  195  A    between atoms: _468  and  _470
REMARK  196  A    between atoms: _470  and  _471
REMARK  197  A    between atoms: _474  and  _476
REMARK  198  A    between atoms: _476  and  _477
REMARK  199  A    between atoms: _476  and  _479
REMARK  200  A    between atoms: _479  and  _480
REMARK  201  A    between atoms: _483  and  _485
REMARK  202  A    between atoms: _485  and  _486
REMARK  203  A    between atoms: _485  and  _488
REMARK  204  A    between atoms: _488  and  _489
REMARK  205  A    between atoms: _492  and  _494
REMARK  206  A    between atoms: _494  and  _495
REMARK  207  A    between atoms: _497  and  _499
REMARK  208  A    between atoms: _499  and  _500
REMARK  209  A    between atoms: _499  and  _502
REMARK  210  A    between atoms: _502  and  _503
REMARK  211  A    between atoms: _506  and  _508
REMARK  212  A    between atoms: _508  and  _509
REMARK  213  A    between atoms: _508  and  _511
REMARK  214  A    between atoms: _511  and  _512
REMARK  215  A    between atoms: _515  and  _517
REMARK  216  A    between atoms: _517  and  _518
REMARK  217  A    between atoms: _517  and  _520
REMARK  218  A    between atoms: _520  and  _521
REMARK  219  A    between atoms: _524  and  _526
REMARK  220  A    between atoms: _526  and  _527
REMARK  221  A    between atoms: _526  and  _529
REMARK  222  A    between atoms: _529  and  _530
REMARK  223  A    between atoms: _533  and  _535
REMARK  224  A    between atoms: _535  and  _536
REMARK  225  A    between atoms: _535  and  _538
REMARK  226  A    between atoms: _538  and  _539
REMARK  227  A    between atoms: _544  and  _545
REMARK  228  A    between atoms: _547  and  _549
REMARK  229  A    between atoms: _549  and  _550
REMARK  230  A    between atoms: _549  and  _552
REMARK  231  A    between atoms: _555  and  _557
REMARK  232  A    between atoms: _557  and  _558
REMARK  233  A    between atoms: _560  and  _562
REMARK  234  A    between atoms: _562  and  _563
REMARK  235  A    between atoms: _562  and  _565
REMARK  236  A    between atoms: _565  and  _566
REMARK  237  A    between atoms: _572  and  _574
REMARK  238  A    between atoms: _574  and  _575
REMARK  239  A    between atoms: _574  and  _577
REMARK  240  A    between atoms: _577  and  _578
REMARK  241  A    between atoms: _584  and  _586
REMARK  242  A    between atoms: _586  and  _587
REMARK  243  A    between atoms: _589  and  _591
REMARK  244  A    between atoms: _591  and  _592
REMARK  245  A    between atoms: _594  and  _596
REMARK  246  A    between atoms: _596  and  _597
REMARK  247  A    between atoms: _596  and  _599
REMARK  248  A    between atoms: _599  and  _600
REMARK  249  A    between atoms: _600  and  _601
REMARK  250  A    between atoms: _606  and  _608
REMARK  251  A    between atoms: _608  and  _609
REMARK  252  A    between atoms: _608  and  _611
REMARK  253  A    between atoms: _611  and  _612
REMARK  254  A    between atoms: _614  and  _616
REMARK  255  A    between atoms: _616  and  _617
REMARK  256  A    between atoms: _619  and  _621
REMARK  257  A    between atoms: _621  and  _622
REMARK  258  A    between atoms: _621  and  _624
REMARK  259  A    between atoms: _624  and  _625
REMARK  260  A    between atoms: _628  and  _630
REMARK  261  A    between atoms: _630  and  _631
REMARK  262  A    between atoms: _633  and  _635
REMARK  263  A    between atoms: _635  and  _636
REMARK  264  A    between atoms: _635  and  _638
REMARK  265  A    between atoms: _638  and  _639
REMARK  266  A    between atoms: _642  and  _644
REMARK  267  A    between atoms: _644  and  _645
REMARK  268  A    between atoms: _644  and  _647
REMARK  269  A    between atoms: _647  and  _648
REMARK  270  A    between atoms: _653  and  _655
REMARK  271  A    between atoms: _655  and  _656
REMARK  272  A    between atoms: _655  and  _658
REMARK  273  A    between atoms: _658  and  _659
REMARK  274  A    between atoms: _662  and  _664
REMARK  275  A    between atoms: _664  and  _665
REMARK  276  A    between atoms: _664  and  _667
REMARK  277  A    between atoms: _667  and  _668
REMARK  278  A    between atoms: _674  and  _676
REMARK  279  A    between atoms: _676  and  _677
REMARK  280  A    between atoms: _679  and  _681
REMARK  281  A    between atoms: _681  and  _682
REMARK  282  A    between atoms: _681  and  _684
REMARK  283  A    between atoms: _684  and  _685
REMARK                            x       y       z     vdW  Elec       q    Type
REMARK                         _______ _______ _______ _____ _____    ______ ____
ROOT
ATOM      1  O   HOH     1       9.593  31.608  22.876  0.00  0.00    +0.000 OA
ENDROOT
TORSDOF 0
REMARK  Name = ../refined-set-2016/5er2/5er2_pocket.pdb
REMARK  283 active torsions:
REMARK  status: ('A' for Active; 'I' for Inactive)
REMARK    1  A    between atoms: _1  and  _3
REMARK    2  A    between atoms: _3  and  _4
REMARK    3  A    between atoms: _3  and  _6
REMARK    4  A    between atoms: _6  and  _7
REMARK    5  A    between atoms: _10  and  _12
REMARK    6  A    between atoms: _12  and  _13
REMARK    7  A    between atoms: _12  and  _15
REMARK    8  A    between atoms: _15  and  _16
REMARK    9  A    between atoms: _19  and  _21
REMARK   10  A    between atoms: _21  and  _22
REMARK   11  A    between atoms: _21  and  _24
REMARK   12  A    between atoms: _24  and  _25
REMARK   13  A    between atoms: _28  and  _30
REMARK   14  A    between atoms: _30  and  _31
REMARK   15  A    between atoms: _30  and  _33
REMARK   16  A    between atoms: _33  and  _34
REMARK   17  A    between atoms: _37  and  _39
REMARK   18  A    between atoms: _39  and  _40
REMARK   19  A    between atoms: _39  and  _42
REMARK   20  A    between atoms: _42  and  _43
REMARK   21  A    between atoms: _46  and  _48
REMARK   22  A    between atoms: _48  and  _49
REMARK   23  A    between atoms: _52  and  _54
REMARK   24  A    between atoms: _54  and  _55
REMARK   25  A    between atoms: _54  and  _57
REMARK   26  A    between atoms: _57  and  _58
REMARK   27  A    between atoms: _63  and  _64
REMARK   28  A    between atoms: _66  and  _68
REMARK   29  A    between atoms: _68  and  _69
REMARK   30  A    between atoms: _68  and  _71
REMARK   31  A    between atoms: _71  and  _72
REMARK   32  A    between atoms: _75  and  _77
REMARK   33  A    between atoms: _77  and  _78
REMARK   34  A    between atoms: _77  and  _80
REMARK   35  A    between atoms: _80  and  _81
REMARK   36  A    between atoms: _87  and  _89
REMARK   37  A    between atoms: _89  and  _90
REMARK   38  A    between atoms: _89  and  _92
REMARK   39  A    between atoms: _92  and  _93
REMARK   40  A    between atoms: _96  and  _98
REMARK   41  A    between atoms: _98  and  _99
REMARK   42  A    between atoms: _98  and  _101
REMARK   43  A    between atoms: _101  and  _102
REMARK   44  A    between atoms: _105  and  _107
REMARK   45  A    between atoms: _107  and  _108
REMARK   46  A    between atoms: _110  and  _112
REMARK   47  A    between atoms: _112  and  _113
REMARK   48  A    between atoms: _112  and  _115
REMARK   49  A    between atoms: _115  and  _116
REMARK   50  A    between atoms: _118  and  _120
REMARK   51  A    between atoms: _120  and  _121
REMARK   52  A    between atoms: _120  and  _123
REMARK   53  A    between atoms: _123  and  _124
REMARK   54  A    between atoms: _126  and  _128
REMARK   55  A    between atoms: _128  and  _129
REMARK   56  A    between atoms: _128  and  _131
REMARK   57  A    between atoms: _131  and  _132
REMARK   58  A    between atoms: _135  and  _137
REMARK   59  A    between atoms: _137  and  _138
REMARK   60  A    between atoms: _137  and  _140
REMARK   61  A    between atoms: _140  and  _141
REMARK   62  A    between atoms: _151  and  _153
REMARK   63  A    between atoms: _153  and  _154
REMARK   64  A    between atoms: _153  and  _156
REMARK   65  A    between atoms: _156  and  _157
REMARK   66  A    between atoms: _159  and  _161
REMARK   67  A    between atoms: _161  and  _162
REMARK   68  A    between atoms: _161  and  _164
REMARK   69  A    between atoms: _164  and  _165
REMARK   70  A    between atoms: _168  and  _170
REMARK   71  A    between atoms: _170  and  _171
REMARK   72  A    between atoms: _170  and  _173
REMARK   73  A    between atoms: _173  and  _174
REMARK   74  A    between atoms: _176  and  _178
REMARK   75  A    between atoms: _178  and  _179
REMARK   76  A    between atoms: _178  and  _181
REMARK   77  A    between atoms: _181  and  _182
REMARK   78  A    between atoms: _187  and  _188
REMARK   79  A    between atoms: _190  and  _192
REMARK   80  A    between atoms: _192  and  _193
REMARK   81  A    between atoms: _195  and  _197
REMARK   82  A    between atoms: _197  and  _198
REMARK   83  A    between atoms: _197  and  _200
REMARK   84  A    between atoms: _200  and  _201
REMARK   85  A    between atoms: _204  and  _206
REMARK   86  A    between atoms: _206  and  _207
REMARK   87  A    between atoms: _209  and  _211
REMARK   88  A    between atoms: _211  and  _212
REMARK   89  A    between atoms: _211  and  _214
REMARK   90  A    between atoms: _214  and  _215
REMARK   91  A    between atoms: _217  and  _219
REMARK   92  A    between atoms: _219  and  _220
REMARK   93  A    between atoms: _219  and  _222
REMARK   94  A    between atoms: _222  and  _223
REMARK   95  A    between atoms: _225  and  _227
REMARK   96  A    between atoms: _227  and  _228
REMARK   97  A    between atoms: _227  and  _230
REMARK   98  A    between atoms: _230  and  _231
REMARK   99  A    between atoms: _233  and  _235
REMARK  100  A    between atoms: _235  and  _236
REMARK  101  A    between atoms: _235  and  _238
REMARK  102  A    between atoms: _238  and  _239
REMARK  103  A    between atoms: _241  and  _243
REMARK  104  A    between atoms: _243  and  _244
REMARK  105  A    between atoms: _243  and  _246
REMARK  106  A    between atoms: _246  and  _247
REMARK  107  A    between atoms: _253  and  _255
REMARK  108  A    between atoms: _255  and  _256
REMARK  109  A    between atoms: _255  and  _258
REMARK  110  A    between atoms: _258  and  _259
REMARK  111  A    between atoms: _259  and  _260
REMARK  112  A    between atoms: _263  and  _265
REMARK  113  A    between atoms: _265  and  _266
REMARK  114  A    between atoms: _265  and  _268
REMARK  115  A    between atoms: _268  and  _269
REMARK  116  A    between atoms: _272  and  _274
REMARK  117  A    between atoms: _274  and  _275
REMARK  118  A    between atoms: _274  and  _277
REMARK  119  A    between atoms: _277  and  _278
REMARK  120  A    between atoms: _280  and  _282
REMARK  121  A    between atoms: _282  and  _283
REMARK  122  A    between atoms: _282  and  _285
REMARK  123  A    between atoms: _285  and  _286
REMARK  124  A    between atoms: _289  and  _291
REMARK  125  A    between atoms: _291  and  _292
REMARK  126  A    between atoms: _291  and  _294
REMARK  127  A    between atoms: _294  and  _295
REMARK  128  A    between atoms: _298  and  _300
REMARK  129  A    between atoms: _300  and  _301
REMARK  130  A    between atoms: _303  and  _305
REMARK  131  A    between atoms: _305  and  _306
REMARK  132  A    between atoms: _305  and  _308
REMARK  133  A    between atoms: _308  and  _309
REMARK  134  A    between atoms: _312  and  _314
REMARK  135  A    between atoms: _314  and  _315
REMARK  136  A    between atoms: _314  and  _317
REMARK  137  A    between atoms: _317  and  _318
REMARK  138  A    between atoms: _321  and  _323
REMARK  139  A    between atoms: _323  and  _324
REMARK  140  A    between atoms: _323  and  _326
REMARK  141  A    between atoms: _326  and  _327
REMARK  142  A    between atoms: _330  and  _332
REMARK  143  A    between atoms: _332  and  _333
REMARK  144  A    between atoms: _336  and  _338
REMARK  145  A    between atoms: _338  and  _339
REMARK  146  A    between atoms: _338  and  _341
REMARK  147  A    between atoms: _341  and  _342
REMARK  148  A    between atoms: _348  and  _350
REMARK  149  A    between atoms: _350  and  _351
REMARK  150  A    between atoms: _350  and  _353
REMARK  151  A    between atoms: _353  and  _354
REMARK  152  A    between atoms: _356  and  _358
REMARK  153  A    between atoms: _358  and  _359
REMARK  154  A    between atoms: _358  and  _361
REMARK  155  A    between atoms: _361  and  _362
REMARK  156  A    between atoms: _365  and  _367
REMARK  157  A    between atoms: _367  and  _368
REMARK  158  A    between atoms: _367  and  _370
REMARK  159  A    between atoms: _370  and  _371
REMARK  160  A    between atoms: _374  and  _376
REMARK  161  A    between atoms: _376  and  _377
REMARK  162  A    between atoms: _376  and  _379
REMARK  163  A    between atoms: _379  and  _380
REMARK  164  A    between atoms: _385  and  _387
REMARK  165  A    between atoms: _387  and  _388
REMARK  166  A    between atoms: _387  and  _390
REMARK  167  A    between atoms: _390  and  _391
REMARK  168  A    between atoms: _394  and  _396
REMARK  169  A    between atoms: _396  and  _397
REMARK  170  A    between atoms: _396  and  _399
REMARK  171  A    between atoms: _402  and  _404
REMARK  172  A    between atoms: _404  and  _405
REMARK  173  A    between atoms: _404  and  _407
REMARK  174  A    between atoms: _407  and  _408
REMARK  175  A    between atoms: _408  and  _409
REMARK  176  A    between atoms: _414  and  _416
REMARK  177  A    between atoms: _416  and  _417
REMARK  178  A    between atoms: _416  and  _419
REMARK  179  A    between atoms: _419  and  _420
REMARK  180  A    between atoms: _420  and  _421
REMARK  181  A    between atoms: _426  and  _428
REMARK  182  A    between atoms: _428  and  _429
REMARK  183  A    between atoms: _428  and  _431
REMARK  184  A    between atoms: _431  and  _432
REMARK  185  A    between atoms: _438  and  _440
REMARK  186  A    between atoms: _440  and  _441
REMARK  187  A    between atoms: _440  and  _443
REMARK  188  A    between atoms: _443  and  _444
REMARK  189  A    between atoms: _454  and  _456
REMARK  190  A    between atoms: _456  and  _457
REMARK  191  A    between atoms: _459  and  _461
REMARK  192  A    between atoms: _461  and  _462
REMARK  193  A    between atoms: _461  and  _464
REMARK  194  A    between atoms: _464  and  _465
REMARK  195  A    between atoms: _468  and  _470
REMARK  196  A    between atoms: _470  and  _471
REMARK  197  A    between atoms: _474  and  _476
REMARK  198  A    between atoms: _476  and  _477
REMARK  199  A    between atoms: _476  and  _479
REMARK  200  A    between atoms: _479  and  _480
REMARK  201  A    between atoms: _483  and  _485
REMARK  202  A    between atoms: _485  and  _486
REMARK  203  A    between atoms: _485  and  _488
REMARK  204  A    between atoms: _488  and  _489
REMARK  205  A    between atoms: _492  and  _494
REMARK  206  A    between atoms: _494  and  _495
REMARK  207  A    between atoms: _497  and  _499
REMARK  208  A    between atoms: _499  and  _500
REMARK  209  A    between atoms: _499  and  _502
REMARK  210  A    between atoms: _502  and  _503
REMARK  211  A    between atoms: _506  and  _508
REMARK  212  A    between atoms: _508  and  _509
REMARK  213  A    between atoms: _508  and  _511
REMARK  214  A    between atoms: _511  and  _512
REMARK  215  A    between atoms: _515  and  _517
REMARK  216  A    between atoms: _517  and  _518
REMARK  217  A    between atoms: _517  and  _520
REMARK  218  A    between atoms: _520  and  _521
REMARK  219  A    between atoms: _524  and  _526
REMARK  220  A    between atoms: _526  and  _527
REMARK  221  A    between atoms: _526  and  _529
REMARK  222  A    between atoms: _529  and  _530
REMARK  223  A    between atoms: _533  and  _535
REMARK  224  A    between atoms: _535  and  _536
REMARK  225  A    between atoms: _535  and  _538
REMARK  226  A    between atoms: _538  and  _539
REMARK  227  A    between atoms: _544  and  _545
REMARK  228  A    between atoms: _547  and  _549
REMARK  229  A    between atoms: _549  and  _550
REMARK  230  A    between atoms: _549  and  _552
REMARK  231  A    between atoms: _555  and  _557
REMARK  232  A    between atoms: _557  and  _558
REMARK  233  A    between atoms: _560  and  _562
REMARK  234  A    between atoms: _562  and  _563
REMARK  235  A    between atoms: _562  and  _565
REMARK  236  A    between atoms: _565  and  _566
REMARK  237  A    between atoms: _572  and  _574
REMARK  238  A    between atoms: _574  and  _575
REMARK  239  A    between atoms: _574  and  _577
REMARK  240  A    between atoms: _577  and  _578
REMARK  241  A    between atoms: _584  and  _586
REMARK  242  A    between atoms: _586  and  _587
REMARK  243  A    between atoms: _589  and  _591
REMARK  244  A    between atoms: _591  and  _592
REMARK  245  A    between atoms: _594  and  _596
REMARK  246  A    between atoms: _596  and  _597
REMARK  247  A    between atoms: _596  and  _599
REMARK  248  A    between atoms: _599  and  _600
REMARK  249  A    between atoms: _600  and  _601
REMARK  250  A    between atoms: _606  and  _608
REMARK  251  A    between atoms: _608  and  _609
REMARK  252  A    between atoms: _608  and  _611
REMARK  253  A    between atoms: _611  and  _612
REMARK  254  A    between atoms: _614  and  _616
REMARK  255  A    between atoms: _616  and  _617
REMARK  256  A    between atoms: _619  and  _621
REMARK  257  A    between atoms: _621  and  _622
REMARK  258  A    between atoms: _621  and  _624
REMARK  259  A    between atoms: _624  and  _625
REMARK  260  A    between atoms: _628  and  _630
REMARK  261  A    between atoms: _630  and  _631
REMARK  262  A    between atoms: _633  and  _635
REMARK  263  A    between atoms: _635  and  _636
REMARK  264  A    between atoms: _635  and  _638
REMARK  265  A    between atoms: _638  and  _639
REMARK  266  A    between atoms: _642  and  _644
REMARK  267  A    between atoms: _644  and  _645
REMARK  268  A    between atoms: _644  and  _647
REMARK  269  A    between atoms: _647  and  _648
REMARK  270  A    between atoms: _653  and  _655
REMARK  271  A    between atoms: _655  and  _656
REMARK  272  A    between atoms: _655  and  _658
REMARK  273  A    between atoms: _658  and  _659
REMARK  274  A    between atoms: _662  and  _664
REMARK  275  A    between atoms: _664  and  _665
REMARK  276  A    between atoms: _664  and  _667
REMARK  277  A    between atoms: _667  and  _668
REMARK  278  A    between atoms: _674  and  _676
REMARK  279  A    between atoms: _676  and  _677
REMARK  280  A    between atoms: _679  and  _681
REMARK  281  A    between atoms: _681  and  _682
REMARK  282  A    between atoms: _681  and  _684
REMARK  283  A    between atoms: _684  and  _685
REMARK                            x       y       z     vdW  Elec       q    Type
REMARK                         _______ _______ _______ _____ _____    ______ ____
ROOT
ATOM      1  O   HOH     1       7.311  33.369  22.539  0.00  0.00    +0.000 OA
ENDROOT
TORSDOF 0
REMARK  Name = ../refined-set-2016/5er2/5er2_pocket.pdb
REMARK  283 active torsions:
REMARK  status: ('A' for Active; 'I' for Inactive)
REMARK    1  A    between atoms: _1  and  _3
REMARK    2  A    between atoms: _3  and  _4
REMARK    3  A    between atoms: _3  and  _6
REMARK    4  A    between atoms: _6  and  _7
REMARK    5  A    between atoms: _10  and  _12
REMARK    6  A    between atoms: _12  and  _13
REMARK    7  A    between atoms: _12  and  _15
REMARK    8  A    between atoms: _15  and  _16
REMARK    9  A    between atoms: _19  and  _21
REMARK   10  A    between atoms: _21  and  _22
REMARK   11  A    between atoms: _21  and  _24
REMARK   12  A    between atoms: _24  and  _25
REMARK   13  A    between atoms: _28  and  _30
REMARK   14  A    between atoms: _30  and  _31
REMARK   15  A    between atoms: _30  and  _33
REMARK   16  A    between atoms: _33  and  _34
REMARK   17  A    between atoms: _37  and  _39
REMARK   18  A    between atoms: _39  and  _40
REMARK   19  A    between atoms: _39  and  _42
REMARK   20  A    between atoms: _42  and  _43
REMARK   21  A    between atoms: _46  and  _48
REMARK   22  A    between atoms: _48  and  _49
REMARK   23  A    between atoms: _52  and  _54
REMARK   24  A    between atoms: _54  and  _55
REMARK   25  A    between atoms: _54  and  _57
REMARK   26  A    between atoms: _57  and  _58
REMARK   27  A    between atoms: _63  and  _64
REMARK   28  A    between atoms: _66  and  _68
REMARK   29  A    between atoms: _68  and  _69
REMARK   30  A    between atoms: _68  and  _71
REMARK   31  A    between atoms: _71  and  _72
REMARK   32  A    between atoms: _75  and  _77
REMARK   33  A    between atoms: _77  and  _78
REMARK   34  A    between atoms: _77  and  _80
REMARK   35  A    between atoms: _80  and  _81
REMARK   36  A    between atoms: _87  and  _89
REMARK   37  A    between atoms: _89  and  _90
REMARK   38  A    between atoms: _89  and  _92
REMARK   39  A    between atoms: _92  and  _93
REMARK   40  A    between atoms: _96  and  _98
REMARK   41  A    between atoms: _98  and  _99
REMARK   42  A    between atoms: _98  and  _101
REMARK   43  A    between atoms: _101  and  _102
REMARK   44  A    between atoms: _105  and  _107
REMARK   45  A    between atoms: _107  and  _108
REMARK   46  A    between atoms: _110  and  _112
REMARK   47  A    between atoms: _112  and  _113
REMARK   48  A    between atoms: _112  and  _115
REMARK   49  A    between atoms: _115  and  _116
REMARK   50  A    between atoms: _118  and  _120
REMARK   51  A    between atoms: _120  and  _121
REMARK   52  A    between atoms: _120  and  _123
REMARK   53  A    between atoms: _123  and  _124
REMARK   54  A    between atoms: _126  and  _128
REMARK   55  A    between atoms: _128  and  _129
REMARK   56  A    between atoms: _128  and  _131
REMARK   57  A    between atoms: _131  and  _132
REMARK   58  A    between atoms: _135  and  _137
REMARK   59  A    between atoms: _137  and  _138
REMARK   60  A    between atoms: _137  and  _140
REMARK   61  A    between atoms: _140  and  _141
REMARK   62  A    between atoms: _151  and  _153
REMARK   63  A    between atoms: _153  and  _154
REMARK   64  A    between atoms: _153  and  _156
REMARK   65  A    between atoms: _156  and  _157
REMARK   66  A    between atoms: _159  and  _161
REMARK   67  A    between atoms: _161  and  _162
REMARK   68  A    between atoms: _161  and  _164
REMARK   69  A    between atoms: _164  and  _165
REMARK   70  A    between atoms: _168  and  _170
REMARK   71  A    between atoms: _170  and  _171
REMARK   72  A    between atoms: _170  and  _173
REMARK   73  A    between atoms: _173  and  _174
REMARK   74  A    between atoms: _176  and  _178
REMARK   75  A    between atoms: _178  and  _179
REMARK   76  A    between atoms: _178  and  _181
REMARK   77  A    between atoms: _181  and  _182
REMARK   78  A    between atoms: _187  and  _188
REMARK   79  A    between atoms: _190  and  _192
REMARK   80  A    between atoms: _192  and  _193
REMARK   81  A    between atoms: _195  and  _197
REMARK   82  A    between atoms: _197  and  _198
REMARK   83  A    between atoms: _197  and  _200
REMARK   84  A    between atoms: _200  and  _201
REMARK   85  A    between atoms: _204  and  _206
REMARK   86  A    between atoms: _206  and  _207
REMARK   87  A    between atoms: _209  and  _211
REMARK   88  A    between atoms: _211  and  _212
REMARK   89  A    between atoms: _211  and  _214
REMARK   90  A    between atoms: _214  and  _215
REMARK   91  A    between atoms: _217  and  _219
REMARK   92  A    between atoms: _219  and  _220
REMARK   93  A    between atoms: _219  and  _222
REMARK   94  A    between atoms: _222  and  _223
REMARK   95  A    between atoms: _225  and  _227
REMARK   96  A    between atoms: _227  and  _228
REMARK   97  A    between atoms: _227  and  _230
REMARK   98  A    between atoms: _230  and  _231
REMARK   99  A    between atoms: _233  and  _235
REMARK  100  A    between atoms: _235  and  _236
REMARK  101  A    between atoms: _235  and  _238
REMARK  102  A    between atoms: _238  and  _239
REMARK  103  A    between atoms: _241  and  _243
REMARK  104  A    between atoms: _243  and  _244
REMARK  105  A    between atoms: _243  and  _246
REMARK  106  A    between atoms: _246  and  _247
REMARK  107  A    between atoms: _253  and  _255
REMARK  108  A    between atoms: _255  and  _256
REMARK  109  A    between atoms: _255  and  _258
REMARK  110  A    between atoms: _258  and  _259
REMARK  111  A    between atoms: _259  and  _260
REMARK  112  A    between atoms: _263  and  _265
REMARK  113  A    between atoms: _265  and  _266
REMARK  114  A    between atoms: _265  and  _268
REMARK  115  A    between atoms: _268  and  _269
REMARK  116  A    between atoms: _272  and  _274
REMARK  117  A    between atoms: _274  and  _275
REMARK  118  A    between atoms: _274  and  _277
REMARK  119  A    between atoms: _277  and  _278
REMARK  120  A    between atoms: _280  and  _282
REMARK  121  A    between atoms: _282  and  _283
REMARK  122  A    between atoms: _282  and  _285
REMARK  123  A    between atoms: _285  and  _286
REMARK  124  A    between atoms: _289  and  _291
REMARK  125  A    between atoms: _291  and  _292
REMARK  126  A    between atoms: _291  and  _294
REMARK  127  A    between atoms: _294  and  _295
REMARK  128  A    between atoms: _298  and  _300
REMARK  129  A    between atoms: _300  and  _301
REMARK  130  A    between atoms: _303  and  _305
REMARK  131  A    between atoms: _305  and  _306
REMARK  132  A    between atoms: _305  and  _308
REMARK  133  A    between atoms: _308  and  _309
REMARK  134  A    between atoms: _312  and  _314
REMARK  135  A    between atoms: _314  and  _315
REMARK  136  A    between atoms: _314  and  _317
REMARK  137  A    between atoms: _317  and  _318
REMARK  138  A    between atoms: _321  and  _323
REMARK  139  A    between atoms: _323  and  _324
REMARK  140  A    between atoms: _323  and  _326
REMARK  141  A    between atoms: _326  and  _327
REMARK  142  A    between atoms: _330  and  _332
REMARK  143  A    between atoms: _332  and  _333
REMARK  144  A    between atoms: _336  and  _338
REMARK  145  A    between atoms: _338  and  _339
REMARK  146  A    between atoms: _338  and  _341
REMARK  147  A    between atoms: _341  and  _342
REMARK  148  A    between atoms: _348  and  _350
REMARK  149  A    between atoms: _350  and  _351
REMARK  150  A    between atoms: _350  and  _353
REMARK  151  A    between atoms: _353  and  _354
REMARK  152  A    between atoms: _356  and  _358
REMARK  153  A    between atoms: _358  and  _359
REMARK  154  A    between atoms: _358  and  _361
REMARK  155  A    between atoms: _361  and  _362
REMARK  156  A    between atoms: _365  and  _367
REMARK  157  A    between atoms: _367  and  _368
REMARK  158  A    between atoms: _367  and  _370
REMARK  159  A    between atoms: _370  and  _371
REMARK  160  A    between atoms: _374  and  _376
REMARK  161  A    between atoms: _376  and  _377
REMARK  162  A    between atoms: _376  and  _379
REMARK  163  A    between atoms: _379  and  _380
REMARK  164  A    between atoms: _385  and  _387
REMARK  165  A    between atoms: _387  and  _388
REMARK  166  A    between atoms: _387  and  _390
REMARK  167  A    between atoms: _390  and  _391
REMARK  168  A    between atoms: _394  and  _396
REMARK  169  A    between atoms: _396  and  _397
REMARK  170  A    between atoms: _396  and  _399
REMARK  171  A    between atoms: _402  and  _404
REMARK  172  A    between atoms: _404  and  _405
REMARK  173  A    between atoms: _404  and  _407
REMARK  174  A    between atoms: _407  and  _408
REMARK  175  A    between atoms: _408  and  _409
REMARK  176  A    between atoms: _414  and  _416
REMARK  177  A    between atoms: _416  and  _417
REMARK  178  A    between atoms: _416  and  _419
REMARK  179  A    between atoms: _419  and  _420
REMARK  180  A    between atoms: _420  and  _421
REMARK  181  A    between atoms: _426  and  _428
REMARK  182  A    between atoms: _428  and  _429
REMARK  183  A    between atoms: _428  and  _431
REMARK  184  A    between atoms: _431  and  _432
REMARK  185  A    between atoms: _438  and  _440
REMARK  186  A    between atoms: _440  and  _441
REMARK  187  A    between atoms: _440  and  _443
REMARK  188  A    between atoms: _443  and  _444
REMARK  189  A    between atoms: _454  and  _456
REMARK  190  A    between atoms: _456  and  _457
REMARK  191  A    between atoms: _459  and  _461
REMARK  192  A    between atoms: _461  and  _462
REMARK  193  A    between atoms: _461  and  _464
REMARK  194  A    between atoms: _464  and  _465
REMARK  195  A    between atoms: _468  and  _470
REMARK  196  A    between atoms: _470  and  _471
REMARK  197  A    between atoms: _474  and  _476
REMARK  198  A    between atoms: _476  and  _477
REMARK  199  A    between atoms: _476  and  _479
REMARK  200  A    between atoms: _479  and  _480
REMARK  201  A    between atoms: _483  and  _485
REMARK  202  A    between atoms: _485  and  _486
REMARK  203  A    between atoms: _485  and  _488
REMARK  204  A    between atoms: _488  and  _489
REMARK  205  A    between atoms: _492  and  _494
REMARK  206  A    between atoms: _494  and  _495
REMARK  207  A    between atoms: _497  and  _499
REMARK  208  A    between atoms: _499  and  _500
REMARK  209  A    between atoms: _499  and  _502
REMARK  210  A    between atoms: _502  and  _503
REMARK  211  A    between atoms: _506  and  _508
REMARK  212  A    between atoms: _508  and  _509
REMARK  213  A    between atoms: _508  and  _511
REMARK  214  A    between atoms: _511  and  _512
REMARK  215  A    between atoms: _515  and  _517
REMARK  216  A    between atoms: _517  and  _518
REMARK  217  A    between atoms: _517  and  _520
REMARK  218  A    between atoms: _520  and  _521
REMARK  219  A    between atoms: _524  and  _526
REMARK  220  A    between atoms: _526  and  _527
REMARK  221  A    between atoms: _526  and  _529
REMARK  222  A    between atoms: _529  and  _530
REMARK  223  A    between atoms: _533  and  _535
REMARK  224  A    between atoms: _535  and  _536
REMARK  225  A    between atoms: _535  and  _538
REMARK  226  A    between atoms: _538  and  _539
REMARK  227  A    between atoms: _544  and  _545
REMARK  228  A    between atoms: _547  and  _549
REMARK  229  A    between atoms: _549  and  _550
REMARK  230  A    between atoms: _549  and  _552
REMARK  231  A    between atoms: _555  and  _557
REMARK  232  A    between atoms: _557  and  _558
REMARK  233  A    between atoms: _560  and  _562
REMARK  234  A    between atoms: _562  and  _563
REMARK  235  A    between atoms: _562  and  _565
REMARK  236  A    between atoms: _565  and  _566
REMARK  237  A    between atoms: _572  and  _574
REMARK  238  A    between atoms: _574  and  _575
REMARK  239  A    between atoms: _574  and  _577
REMARK  240  A    between atoms: _577  and  _578
REMARK  241  A    between atoms: _584  and  _586
REMARK  242  A    between atoms: _586  and  _587
REMARK  243  A    between atoms: _589  and  _591
REMARK  244  A    between atoms: _591  and  _592
REMARK  245  A    between atoms: _594  and  _596
REMARK  246  A    between atoms: _596  and  _597
REMARK  247  A    between atoms: _596  and  _599
REMARK  248  A    between atoms: _599  and  _600
REMARK  249  A    between atoms: _600  and  _601
REMARK  250  A    between atoms: _606  and  _608
REMARK  251  A    between atoms: _608  and  _609
REMARK  252  A    between atoms: _608  and  _611
REMARK  253  A    between atoms: _611  and  _612
REMARK  254  A    between atoms: _614  and  _616
REMARK  255  A    between atoms: _616  and  _617
REMARK  256  A    between atoms: _619  and  _621
REMARK  257  A    between atoms: _621  and  _622
REMARK  258  A    between atoms: _621  and  _624
REMARK  259  A    between atoms: _624  and  _625
REMARK  260  A    between atoms: _628  and  _630
REMARK  261  A    between atoms: _630  and  _631
REMARK  262  A    between atoms: _633  and  _635
REMARK  263  A    between atoms: _635  and  _636
REMARK  264  A    between atoms: _635  and  _638
REMARK  265  A    between atoms: _638  and  _639
REMARK  266  A    between atoms: _642  and  _644
REMARK  267  A    between atoms: _644  and  _645
REMARK  268  A    between atoms: _644  and  _647
REMARK  269  A    between atoms: _647  and  _648
REMARK  270  A    between atoms: _653  and  _655
REMARK  271  A    between atoms: _655  and  _656
REMARK  272  A    between atoms: _655  and  _658
REMARK  273  A    between atoms: _658  and  _659
REMARK  274  A    between atoms: _662  and  _664
REMARK  275  A    between atoms: _664  and  _665
REMARK  276  A    between atoms: _664  and  _667
REMARK  277  A    between atoms: _667  and  _668
REMARK  278  A    between atoms: _674  and  _676
REMARK  279  A    between atoms: _676  and  _677
REMARK  280  A    between atoms: _679  and  _681
REMARK  281  A    between atoms: _681  and  _682
REMARK  282  A    between atoms: _681  and  _684
REMARK  283  A    between atoms: _684  and  _685
REMARK                            x       y       z     vdW  Elec       q    Type
REMARK                         _______ _______ _______ _____ _____    ______ ____
ROOT
ATOM      1  O   HOH     1      -0.521  21.242  23.543  0.00  0.00    +0.000 OA
ENDROOT
TORSDOF 0
REMARK  Name = ../refined-set-2016/5er2/5er2_pocket.pdb
REMARK  283 active torsions:
REMARK  status: ('A' for Active; 'I' for Inactive)
REMARK    1  A    between atoms: _1  and  _3
REMARK    2  A    between atoms: _3  and  _4
REMARK    3  A    between atoms: _3  and  _6
REMARK    4  A    between atoms: _6  and  _7
REMARK    5  A    between atoms: _10  and  _12
REMARK    6  A    between atoms: _12  and  _13
REMARK    7  A    between atoms: _12  and  _15
REMARK    8  A    between atoms: _15  and  _16
REMARK    9  A    between atoms: _19  and  _21
REMARK   10  A    between atoms: _21  and  _22
REMARK   11  A    between atoms: _21  and  _24
REMARK   12  A    between atoms: _24  and  _25
REMARK   13  A    between atoms: _28  and  _30
REMARK   14  A    between atoms: _30  and  _31
REMARK   15  A    between atoms: _30  and  _33
REMARK   16  A    between atoms: _33  and  _34
REMARK   17  A    between atoms: _37  and  _39
REMARK   18  A    between atoms: _39  and  _40
REMARK   19  A    between atoms: _39  and  _42
REMARK   20  A    between atoms: _42  and  _43
REMARK   21  A    between atoms: _46  and  _48
REMARK   22  A    between atoms: _48  and  _49
REMARK   23  A    between atoms: _52  and  _54
REMARK   24  A    between atoms: _54  and  _55
REMARK   25  A    between atoms: _54  and  _57
REMARK   26  A    between atoms: _57  and  _58
REMARK   27  A    between atoms: _63  and  _64
REMARK   28  A    between atoms: _66  and  _68
REMARK   29  A    between atoms: _68  and  _69
REMARK   30  A    between atoms: _68  and  _71
REMARK   31  A    between atoms: _71  and  _72
REMARK   32  A    between atoms: _75  and  _77
REMARK   33  A    between atoms: _77  and  _78
REMARK   34  A    between atoms: _77  and  _80
REMARK   35  A    between atoms: _80  and  _81
REMARK   36  A    between atoms: _87  and  _89
REMARK   37  A    between atoms: _89  and  _90
REMARK   38  A    between atoms: _89  and  _92
REMARK   39  A    between atoms: _92  and  _93
REMARK   40  A    between atoms: _96  and  _98
REMARK   41  A    between atoms: _98  and  _99
REMARK   42  A    between atoms: _98  and  _101
REMARK   43  A    between atoms: _101  and  _102
REMARK   44  A    between atoms: _105  and  _107
REMARK   45  A    between atoms: _107  and  _108
REMARK   46  A    between atoms: _110  and  _112
REMARK   47  A    between atoms: _112  and  _113
REMARK   48  A    between atoms: _112  and  _115
REMARK   49  A    between atoms: _115  and  _116
REMARK   50  A    between atoms: _118  and  _120
REMARK   51  A    between atoms: _120  and  _121
REMARK   52  A    between atoms: _120  and  _123
REMARK   53  A    between atoms: _123  and  _124
REMARK   54  A    between atoms: _126  and  _128
REMARK   55  A    between atoms: _128  and  _129
REMARK   56  A    between atoms: _128  and  _131
REMARK   57  A    between atoms: _131  and  _132
REMARK   58  A    between atoms: _135  and  _137
REMARK   59  A    between atoms: _137  and  _138
REMARK   60  A    between atoms: _137  and  _140
REMARK   61  A    between atoms: _140  and  _141
REMARK   62  A    between atoms: _151  and  _153
REMARK   63  A    between atoms: _153  and  _154
REMARK   64  A    between atoms: _153  and  _156
REMARK   65  A    between atoms: _156  and  _157
REMARK   66  A    between atoms: _159  and  _161
REMARK   67  A    between atoms: _161  and  _162
REMARK   68  A    between atoms: _161  and  _164
REMARK   69  A    between atoms: _164  and  _165
REMARK   70  A    between atoms: _168  and  _170
REMARK   71  A    between atoms: _170  and  _171
REMARK   72  A    between atoms: _170  and  _173
REMARK   73  A    between atoms: _173  and  _174
REMARK   74  A    between atoms: _176  and  _178
REMARK   75  A    between atoms: _178  and  _179
REMARK   76  A    between atoms: _178  and  _181
REMARK   77  A    between atoms: _181  and  _182
REMARK   78  A    between atoms: _187  and  _188
REMARK   79  A    between atoms: _190  and  _192
REMARK   80  A    between atoms: _192  and  _193
REMARK   81  A    between atoms: _195  and  _197
REMARK   82  A    between atoms: _197  and  _198
REMARK   83  A    between atoms: _197  and  _200
REMARK   84  A    between atoms: _200  and  _201
REMARK   85  A    between atoms: _204  and  _206
REMARK   86  A    between atoms: _206  and  _207
REMARK   87  A    between atoms: _209  and  _211
REMARK   88  A    between atoms: _211  and  _212
REMARK   89  A    between atoms: _211  and  _214
REMARK   90  A    between atoms: _214  and  _215
REMARK   91  A    between atoms: _217  and  _219
REMARK   92  A    between atoms: _219  and  _220
REMARK   93  A    between atoms: _219  and  _222
REMARK   94  A    between atoms: _222  and  _223
REMARK   95  A    between atoms: _225  and  _227
REMARK   96  A    between atoms: _227  and  _228
REMARK   97  A    between atoms: _227  and  _230
REMARK   98  A    between atoms: _230  and  _231
REMARK   99  A    between atoms: _233  and  _235
REMARK  100  A    between atoms: _235  and  _236
REMARK  101  A    between atoms: _235  and  _238
REMARK  102  A    between atoms: _238  and  _239
REMARK  103  A    between atoms: _241  and  _243
REMARK  104  A    between atoms: _243  and  _244
REMARK  105  A    between atoms: _243  and  _246
REMARK  106  A    between atoms: _246  and  _247
REMARK  107  A    between atoms: _253  and  _255
REMARK  108  A    between atoms: _255  and  _256
REMARK  109  A    between atoms: _255  and  _258
REMARK  110  A    between atoms: _258  and  _259
REMARK  111  A    between atoms: _259  and  _260
REMARK  112  A    between atoms: _263  and  _265
REMARK  113  A    between atoms: _265  and  _266
REMARK  114  A    between atoms: _265  and  _268
REMARK  115  A    between atoms: _268  and  _269
REMARK  116  A    between atoms: _272  and  _274
REMARK  117  A    between atoms: _274  and  _275
REMARK  118  A    between atoms: _274  and  _277
REMARK  119  A    between atoms: _277  and  _278
REMARK  120  A    between atoms: _280  and  _282
REMARK  121  A    between atoms: _282  and  _283
REMARK  122  A    between atoms: _282  and  _285
REMARK  123  A    between atoms: _285  and  _286
REMARK  124  A    between atoms: _289  and  _291
REMARK  125  A    between atoms: _291  and  _292
REMARK  126  A    between atoms: _291  and  _294
REMARK  127  A    between atoms: _294  and  _295
REMARK  128  A    between atoms: _298  and  _300
REMARK  129  A    between atoms: _300  and  _301
REMARK  130  A    between atoms: _303  and  _305
REMARK  131  A    between atoms: _305  and  _306
REMARK  132  A    between atoms: _305  and  _308
REMARK  133  A    between atoms: _308  and  _309
REMARK  134  A    between atoms: _312  and  _314
REMARK  135  A    between atoms: _314  and  _315
REMARK  136  A    between atoms: _314  and  _317
REMARK  137  A    between atoms: _317  and  _318
REMARK  138  A    between atoms: _321  and  _323
REMARK  139  A    between atoms: _323  and  _324
REMARK  140  A    between atoms: _323  and  _326
REMARK  141  A    between atoms: _326  and  _327
REMARK  142  A    between atoms: _330  and  _332
REMARK  143  A    between atoms: _332  and  _333
REMARK  144  A    between atoms: _336  and  _338
REMARK  145  A    between atoms: _338  and  _339
REMARK  146  A    between atoms: _338  and  _341
REMARK  147  A    between atoms: _341  and  _342
REMARK  148  A    between atoms: _348  and  _350
REMARK  149  A    between atoms: _350  and  _351
REMARK  150  A    between atoms: _350  and  _353
REMARK  151  A    between atoms: _353  and  _354
REMARK  152  A    between atoms: _356  and  _358
REMARK  153  A    between atoms: _358  and  _359
REMARK  154  A    between atoms: _358  and  _361
REMARK  155  A    between atoms: _361  and  _362
REMARK  156  A    between atoms: _365  and  _367
REMARK  157  A    between atoms: _367  and  _368
REMARK  158  A    between atoms: _367  and  _370
REMARK  159  A    between atoms: _370  and  _371
REMARK  160  A    between atoms: _374  and  _376
REMARK  161  A    between atoms: _376  and  _377
REMARK  162  A    between atoms: _376  and  _379
REMARK  163  A    between atoms: _379  and  _380
REMARK  164  A    between atoms: _385  and  _387
REMARK  165  A    between atoms: _387  and  _388
REMARK  166  A    between atoms: _387  and  _390
REMARK  167  A    between atoms: _390  and  _391
REMARK  168  A    between atoms: _394  and  _396
REMARK  169  A    between atoms: _396  and  _397
REMARK  170  A    between atoms: _396  and  _399
REMARK  171  A    between atoms: _402  and  _404
REMARK  172  A    between atoms: _404  and  _405
REMARK  173  A    between atoms: _404  and  _407
REMARK  174  A    between atoms: _407  and  _408
REMARK  175  A    between atoms: _408  and  _409
REMARK  176  A    between atoms: _414  and  _416
REMARK  177  A    between atoms: _416  and  _417
REMARK  178  A    between atoms: _416  and  _419
REMARK  179  A    between atoms: _419  and  _420
REMARK  180  A    between atoms: _420  and  _421
REMARK  181  A    between atoms: _426  and  _428
REMARK  182  A    between atoms: _428  and  _429
REMARK  183  A    between atoms: _428  and  _431
REMARK  184  A    between atoms: _431  and  _432
REMARK  185  A    between atoms: _438  and  _440
REMARK  186  A    between atoms: _440  and  _441
REMARK  187  A    between atoms: _440  and  _443
REMARK  188  A    between atoms: _443  and  _444
REMARK  189  A    between atoms: _454  and  _456
REMARK  190  A    between atoms: _456  and  _457
REMARK  191  A    between atoms: _459  and  _461
REMARK  192  A    between atoms: _461  and  _462
REMARK  193  A    between atoms: _461  and  _464
REMARK  194  A    between atoms: _464  and  _465
REMARK  195  A    between atoms: _468  and  _470
REMARK  196  A    between atoms: _470  and  _471
REMARK  197  A    between atoms: _474  and  _476
REMARK  198  A    between atoms: _476  and  _477
REMARK  199  A    between atoms: _476  and  _479
REMARK  200  A    between atoms: _479  and  _480
REMARK  201  A    between atoms: _483  and  _485
REMARK  202  A    between atoms: _485  and  _486
REMARK  203  A    between atoms: _485  and  _488
REMARK  204  A    between atoms: _488  and  _489
REMARK  205  A    between atoms: _492  and  _494
REMARK  206  A    between atoms: _494  and  _495
REMARK  207  A    between atoms: _497  and  _499
REMARK  208  A    between atoms: _499  and  _500
REMARK  209  A    between atoms: _499  and  _502
REMARK  210  A    between atoms: _502  and  _503
REMARK  211  A    between atoms: _506  and  _508
REMARK  212  A    between atoms: _508  and  _509
REMARK  213  A    between atoms: _508  and  _511
REMARK  214  A    between atoms: _511  and  _512
REMARK  215  A    between atoms: _515  and  _517
REMARK  216  A    between atoms: _517  and  _518
REMARK  217  A    between atoms: _517  and  _520
REMARK  218  A    between atoms: _520  and  _521
REMARK  219  A    between atoms: _524  and  _526
REMARK  220  A    between atoms: _526  and  _527
REMARK  221  A    between atoms: _526  and  _529
REMARK  222  A    between atoms: _529  and  _530
REMARK  223  A    between atoms: _533  and  _535
REMARK  224  A    between atoms: _535  and  _536
REMARK  225  A    between atoms: _535  and  _538
REMARK  226  A    between atoms: _538  and  _539
REMARK  227  A    between atoms: _544  and  _545
REMARK  228  A    between atoms: _547  and  _549
REMARK  229  A    between atoms: _549  and  _550
REMARK  230  A    between atoms: _549  and  _552
REMARK  231  A    between atoms: _555  and  _557
REMARK  232  A    between atoms: _557  and  _558
REMARK  233  A    between atoms: _560  and  _562
REMARK  234  A    between atoms: _562  and  _563
REMARK  235  A    between atoms: _562  and  _565
REMARK  236  A    between atoms: _565  and  _566
REMARK  237  A    between atoms: _572  and  _574
REMARK  238  A    between atoms: _574  and  _575
REMARK  239  A    between atoms: _574  and  _577
REMARK  240  A    between atoms: _577  and  _578
REMARK  241  A    between atoms: _584  and  _586
REMARK  242  A    between atoms: _586  and  _587
REMARK  243  A    between atoms: _589  and  _591
REMARK  244  A    between atoms: _591  and  _592
REMARK  245  A    between atoms: _594  and  _596
REMARK  246  A    between atoms: _596  and  _597
REMARK  247  A    between atoms: _596  and  _599
REMARK  248  A    between atoms: _599  and  _600
REMARK  249  A    between atoms: _600  and  _601
REMARK  250  A    between atoms: _606  and  _608
REMARK  251  A    between atoms: _608  and  _609
REMARK  252  A    between atoms: _608  and  _611
REMARK  253  A    between atoms: _611  and  _612
REMARK  254  A    between atoms: _614  and  _616
REMARK  255  A    between atoms: _616  and  _617
REMARK  256  A    between atoms: _619  and  _621
REMARK  257  A    between atoms: _621  and  _622
REMARK  258  A    between atoms: _621  and  _624
REMARK  259  A    between atoms: _624  and  _625
REMARK  260  A    between atoms: _628  and  _630
REMARK  261  A    between atoms: _630  and  _631
REMARK  262  A    between atoms: _633  and  _635
REMARK  263  A    between atoms: _635  and  _636
REMARK  264  A    between atoms: _635  and  _638
REMARK  265  A    between atoms: _638  and  _639
REMARK  266  A    between atoms: _642  and  _644
REMARK  267  A    between atoms: _644  and  _645
REMARK  268  A    between atoms: _644  and  _647
REMARK  269  A    between atoms: _647  and  _648
REMARK  270  A    between atoms: _653  and  _655
REMARK  271  A    between atoms: _655  and  _656
REMARK  272  A    between atoms: _655  and  _658
REMARK  273  A    between atoms: _658  and  _659
REMARK  274  A    between atoms: _662  and  _664
REMARK  275  A    between atoms: _664  and  _665
REMARK  276  A    between atoms: _664  and  _667
REMARK  277  A    between atoms: _667  and  _668
REMARK  278  A    between atoms: _674  and  _676
REMARK  279  A    between atoms: _676  and  _677
REMARK  280  A    between atoms: _679  and  _681
REMARK  281  A    between atoms: _681  and  _682
REMARK  282  A    between atoms: _681  and  _684
REMARK  283  A    between atoms: _684  and  _685
REMARK                            x       y       z     vdW  Elec       q    Type
REMARK                         _______ _______ _______ _____ _____    ______ ____
ROOT
ATOM      1  O   HOH     1       2.480  21.415  25.218  0.00  0.00    +0.000 OA
ENDROOT
TORSDOF 0
REMARK  Name = ../refined-set-2016/5er2/5er2_pocket.pdb
REMARK  283 active torsions:
REMARK  status: ('A' for Active; 'I' for Inactive)
REMARK    1  A    between atoms: _1  and  _3
REMARK    2  A    between atoms: _3  and  _4
REMARK    3  A    between atoms: _3  and  _6
REMARK    4  A    between atoms: _6  and  _7
REMARK    5  A    between atoms: _10  and  _12
REMARK    6  A    between atoms: _12  and  _13
REMARK    7  A    between atoms: _12  and  _15
REMARK    8  A    between atoms: _15  and  _16
REMARK    9  A    between atoms: _19  and  _21
REMARK   10  A    between atoms: _21  and  _22
REMARK   11  A    between atoms: _21  and  _24
REMARK   12  A    between atoms: _24  and  _25
REMARK   13  A    between atoms: _28  and  _30
REMARK   14  A    between atoms: _30  and  _31
REMARK   15  A    between atoms: _30  and  _33
REMARK   16  A    between atoms: _33  and  _34
REMARK   17  A    between atoms: _37  and  _39
REMARK   18  A    between atoms: _39  and  _40
REMARK   19  A    between atoms: _39  and  _42
REMARK   20  A    between atoms: _42  and  _43
REMARK   21  A    between atoms: _46  and  _48
REMARK   22  A    between atoms: _48  and  _49
REMARK   23  A    between atoms: _52  and  _54
REMARK   24  A    between atoms: _54  and  _55
REMARK   25  A    between atoms: _54  and  _57
REMARK   26  A    between atoms: _57  and  _58
REMARK   27  A    between atoms: _63  and  _64
REMARK   28  A    between atoms: _66  and  _68
REMARK   29  A    between atoms: _68  and  _69
REMARK   30  A    between atoms: _68  and  _71
REMARK   31  A    between atoms: _71  and  _72
REMARK   32  A    between atoms: _75  and  _77
REMARK   33  A    between atoms: _77  and  _78
REMARK   34  A    between atoms: _77  and  _80
REMARK   35  A    between atoms: _80  and  _81
REMARK   36  A    between atoms: _87  and  _89
REMARK   37  A    between atoms: _89  and  _90
REMARK   38  A    between atoms: _89  and  _92
REMARK   39  A    between atoms: _92  and  _93
REMARK   40  A    between atoms: _96  and  _98
REMARK   41  A    between atoms: _98  and  _99
REMARK   42  A    between atoms: _98  and  _101
REMARK   43  A    between atoms: _101  and  _102
REMARK   44  A    between atoms: _105  and  _107
REMARK   45  A    between atoms: _107  and  _108
REMARK   46  A    between atoms: _110  and  _112
REMARK   47  A    between atoms: _112  and  _113
REMARK   48  A    between atoms: _112  and  _115
REMARK   49  A    between atoms: _115  and  _116
REMARK   50  A    between atoms: _118  and  _120
REMARK   51  A    between atoms: _120  and  _121
REMARK   52  A    between atoms: _120  and  _123
REMARK   53  A    between atoms: _123  and  _124
REMARK   54  A    between atoms: _126  and  _128
REMARK   55  A    between atoms: _128  and  _129
REMARK   56  A    between atoms: _128  and  _131
REMARK   57  A    between atoms: _131  and  _132
REMARK   58  A    between atoms: _135  and  _137
REMARK   59  A    between atoms: _137  and  _138
REMARK   60  A    between atoms: _137  and  _140
REMARK   61  A    between atoms: _140  and  _141
REMARK   62  A    between atoms: _151  and  _153
REMARK   63  A    between atoms: _153  and  _154
REMARK   64  A    between atoms: _153  and  _156
REMARK   65  A    between atoms: _156  and  _157
REMARK   66  A    between atoms: _159  and  _161
REMARK   67  A    between atoms: _161  and  _162
REMARK   68  A    between atoms: _161  and  _164
REMARK   69  A    between atoms: _164  and  _165
REMARK   70  A    between atoms: _168  and  _170
REMARK   71  A    between atoms: _170  and  _171
REMARK   72  A    between atoms: _170  and  _173
REMARK   73  A    between atoms: _173  and  _174
REMARK   74  A    between atoms: _176  and  _178
REMARK   75  A    between atoms: _178  and  _179
REMARK   76  A    between atoms: _178  and  _181
REMARK   77  A    between atoms: _181  and  _182
REMARK   78  A    between atoms: _187  and  _188
REMARK   79  A    between atoms: _190  and  _192
REMARK   80  A    between atoms: _192  and  _193
REMARK   81  A    between atoms: _195  and  _197
REMARK   82  A    between atoms: _197  and  _198
REMARK   83  A    between atoms: _197  and  _200
REMARK   84  A    between atoms: _200  and  _201
REMARK   85  A    between atoms: _204  and  _206
REMARK   86  A    between atoms: _206  and  _207
REMARK   87  A    between atoms: _209  and  _211
REMARK   88  A    between atoms: _211  and  _212
REMARK   89  A    between atoms: _211  and  _214
REMARK   90  A    between atoms: _214  and  _215
REMARK   91  A    between atoms: _217  and  _219
REMARK   92  A    between atoms: _219  and  _220
REMARK   93  A    between atoms: _219  and  _222
REMARK   94  A    between atoms: _222  and  _223
REMARK   95  A    between atoms: _225  and  _227
REMARK   96  A    between atoms: _227  and  _228
REMARK   97  A    between atoms: _227  and  _230
REMARK   98  A    between atoms: _230  and  _231
REMARK   99  A    between atoms: _233  and  _235
REMARK  100  A    between atoms: _235  and  _236
REMARK  101  A    between atoms: _235  and  _238
REMARK  102  A    between atoms: _238  and  _239
REMARK  103  A    between atoms: _241  and  _243
REMARK  104  A    between atoms: _243  and  _244
REMARK  105  A    between atoms: _243  and  _246
REMARK  106  A    between atoms: _246  and  _247
REMARK  107  A    between atoms: _253  and  _255
REMARK  108  A    between atoms: _255  and  _256
REMARK  109  A    between atoms: _255  and  _258
REMARK  110  A    between atoms: _258  and  _259
REMARK  111  A    between atoms: _259  and  _260
REMARK  112  A    between atoms: _263  and  _265
REMARK  113  A    between atoms: _265  and  _266
REMARK  114  A    between atoms: _265  and  _268
REMARK  115  A    between atoms: _268  and  _269
REMARK  116  A    between atoms: _272  and  _274
REMARK  117  A    between atoms: _274  and  _275
REMARK  118  A    between atoms: _274  and  _277
REMARK  119  A    between atoms: _277  and  _278
REMARK  120  A    between atoms: _280  and  _282
REMARK  121  A    between atoms: _282  and  _283
REMARK  122  A    between atoms: _282  and  _285
REMARK  123  A    between atoms: _285  and  _286
REMARK  124  A    between atoms: _289  and  _291
REMARK  125  A    between atoms: _291  and  _292
REMARK  126  A    between atoms: _291  and  _294
REMARK  127  A    between atoms: _294  and  _295
REMARK  128  A    between atoms: _298  and  _300
REMARK  129  A    between atoms: _300  and  _301
REMARK  130  A    between atoms: _303  and  _305
REMARK  131  A    between atoms: _305  and  _306
REMARK  132  A    between atoms: _305  and  _308
REMARK  133  A    between atoms: _308  and  _309
REMARK  134  A    between atoms: _312  and  _314
REMARK  135  A    between atoms: _314  and  _315
REMARK  136  A    between atoms: _314  and  _317
REMARK  137  A    between atoms: _317  and  _318
REMARK  138  A    between atoms: _321  and  _323
REMARK  139  A    between atoms: _323  and  _324
REMARK  140  A    between atoms: _323  and  _326
REMARK  141  A    between atoms: _326  and  _327
REMARK  142  A    between atoms: _330  and  _332
REMARK  143  A    between atoms: _332  and  _333
REMARK  144  A    between atoms: _336  and  _338
REMARK  145  A    between atoms: _338  and  _339
REMARK  146  A    between atoms: _338  and  _341
REMARK  147  A    between atoms: _341  and  _342
REMARK  148  A    between atoms: _348  and  _350
REMARK  149  A    between atoms: _350  and  _351
REMARK  150  A    between atoms: _350  and  _353
REMARK  151  A    between atoms: _353  and  _354
REMARK  152  A    between atoms: _356  and  _358
REMARK  153  A    between atoms: _358  and  _359
REMARK  154  A    between atoms: _358  and  _361
REMARK  155  A    between atoms: _361  and  _362
REMARK  156  A    between atoms: _365  and  _367
REMARK  157  A    between atoms: _367  and  _368
REMARK  158  A    between atoms: _367  and  _370
REMARK  159  A    between atoms: _370  and  _371
REMARK  160  A    between atoms: _374  and  _376
REMARK  161  A    between atoms: _376  and  _377
REMARK  162  A    between atoms: _376  and  _379
REMARK  163  A    between atoms: _379  and  _380
REMARK  164  A    between atoms: _385  and  _387
REMARK  165  A    between atoms: _387  and  _388
REMARK  166  A    between atoms: _387  and  _390
REMARK  167  A    between atoms: _390  and  _391
REMARK  168  A    between atoms: _394  and  _396
REMARK  169  A    between atoms: _396  and  _397
REMARK  170  A    between atoms: _396  and  _399
REMARK  171  A    between atoms: _402  and  _404
REMARK  172  A    between atoms: _404  and  _405
REMARK  173  A    between atoms: _404  and  _407
REMARK  174  A    between atoms: _407  and  _408
REMARK  175  A    between atoms: _408  and  _409
REMARK  176  A    between atoms: _414  and  _416
REMARK  177  A    between atoms: _416  and  _417
REMARK  178  A    between atoms: _416  and  _419
REMARK  179  A    between atoms: _419  and  _420
REMARK  180  A    between atoms: _420  and  _421
REMARK  181  A    between atoms: _426  and  _428
REMARK  182  A    between atoms: _428  and  _429
REMARK  183  A    between atoms: _428  and  _431
REMARK  184  A    between atoms: _431  and  _432
REMARK  185  A    between atoms: _438  and  _440
REMARK  186  A    between atoms: _440  and  _441
REMARK  187  A    between atoms: _440  and  _443
REMARK  188  A    between atoms: _443  and  _444
REMARK  189  A    between atoms: _454  and  _456
REMARK  190  A    between atoms: _456  and  _457
REMARK  191  A    between atoms: _459  and  _461
REMARK  192  A    between atoms: _461  and  _462
REMARK  193  A    between atoms: _461  and  _464
REMARK  194  A    between atoms: _464  and  _465
REMARK  195  A    between atoms: _468  and  _470
REMARK  196  A    between atoms: _470  and  _471
REMARK  197  A    between atoms: _474  and  _476
REMARK  198  A    between atoms: _476  and  _477
REMARK  199  A    between atoms: _476  and  _479
REMARK  200  A    between atoms: _479  and  _480
REMARK  201  A    between atoms: _483  and  _485
REMARK  202  A    between atoms: _485  and  _486
REMARK  203  A    between atoms: _485  and  _488
REMARK  204  A    between atoms: _488  and  _489
REMARK  205  A    between atoms: _492  and  _494
REMARK  206  A    between atoms: _494  and  _495
REMARK  207  A    between atoms: _497  and  _499
REMARK  208  A    between atoms: _499  and  _500
REMARK  209  A    between atoms: _499  and  _502
REMARK  210  A    between atoms: _502  and  _503
REMARK  211  A    between atoms: _506  and  _508
REMARK  212  A    between atoms: _508  and  _509
REMARK  213  A    between atoms: _508  and  _511
REMARK  214  A    between atoms: _511  and  _512
REMARK  215  A    between atoms: _515  and  _517
REMARK  216  A    between atoms: _517  and  _518
REMARK  217  A    between atoms: _517  and  _520
REMARK  218  A    between atoms: _520  and  _521
REMARK  219  A    between atoms: _524  and  _526
REMARK  220  A    between atoms: _526  and  _527
REMARK  221  A    between atoms: _526  and  _529
REMARK  222  A    between atoms: _529  and  _530
REMARK  223  A    between atoms: _533  and  _535
REMARK  224  A    between atoms: _535  and  _536
REMARK  225  A    between atoms: _535  and  _538
REMARK  226  A    between atoms: _538  and  _539
REMARK  227  A    between atoms: _544  and  _545
REMARK  228  A    between atoms: _547  and  _549
REMARK  229  A    between atoms: _549  and  _550
REMARK  230  A    between atoms: _549  and  _552
REMARK  231  A    between atoms: _555  and  _557
REMARK  232  A    between atoms: _557  and  _558
REMARK  233  A    between atoms: _560  and  _562
REMARK  234  A    between atoms: _562  and  _563
REMARK  235  A    between atoms: _562  and  _565
REMARK  236  A    between atoms: _565  and  _566
REMARK  237  A    between atoms: _572  and  _574
REMARK  238  A    between atoms: _574  and  _575
REMARK  239  A    between atoms: _574  and  _577
REMARK  240  A    between atoms: _577  and  _578
REMARK  241  A    between atoms: _584  and  _586
REMARK  242  A    between atoms: _586  and  _587
REMARK  243  A    between atoms: _589  and  _591
REMARK  244  A    between atoms: _591  and  _592
REMARK  245  A    between atoms: _594  and  _596
REMARK  246  A    between atoms: _596  and  _597
REMARK  247  A    between atoms: _596  and  _599
REMARK  248  A    between atoms: _599  and  _600
REMARK  249  A    between atoms: _600  and  _601
REMARK  250  A    between atoms: _606  and  _608
REMARK  251  A    between atoms: _608  and  _609
REMARK  252  A    between atoms: _608  and  _611
REMARK  253  A    between atoms: _611  and  _612
REMARK  254  A    between atoms: _614  and  _616
REMARK  255  A    between atoms: _616  and  _617
REMARK  256  A    between atoms: _619  and  _621
REMARK  257  A    between atoms: _621  and  _622
REMARK  258  A    between atoms: _621  and  _624
REMARK  259  A    between atoms: _624  and  _625
REMARK  260  A    between atoms: _628  and  _630
REMARK  261  A    between atoms: _630  and  _631
REMARK  262  A    between atoms: _633  and  _635
REMARK  263  A    between atoms: _635  and  _636
REMARK  264  A    between atoms: _635  and  _638
REMARK  265  A    between atoms: _638  and  _639
REMARK  266  A    between atoms: _642  and  _644
REMARK  267  A    between atoms: _644  and  _645
REMARK  268  A    between atoms: _644  and  _647
REMARK  269  A    between atoms: _647  and  _648
REMARK  270  A    between atoms: _653  and  _655
REMARK  271  A    between atoms: _655  and  _656
REMARK  272  A    between atoms: _655  and  _658
REMARK  273  A    between atoms: _658  and  _659
REMARK  274  A    between atoms: _662  and  _664
REMARK  275  A    between atoms: _664  and  _665
REMARK  276  A    between atoms: _664  and  _667
REMARK  277  A    between atoms: _667  and  _668
REMARK  278  A    between atoms: _674  and  _676
REMARK  279  A    between atoms: _676  and  _677
REMARK  280  A    between atoms: _679  and  _681
REMARK  281  A    between atoms: _681  and  _682
REMARK  282  A    between atoms: _681  and  _684
REMARK  283  A    between atoms: _684  and  _685
REMARK                            x       y       z     vdW  Elec       q    Type
REMARK                         _______ _______ _______ _____ _____    ______ ____
ROOT
ATOM      1  O   HOH     1       5.662  21.405  25.941  0.00  0.00    +0.000 OA
ENDROOT
TORSDOF 0
REMARK  Name = ../refined-set-2016/5er2/5er2_pocket.pdb
REMARK  283 active torsions:
REMARK  status: ('A' for Active; 'I' for Inactive)
REMARK    1  A    between atoms: _1  and  _3
REMARK    2  A    between atoms: _3  and  _4
REMARK    3  A    between atoms: _3  and  _6
REMARK    4  A    between atoms: _6  and  _7
REMARK    5  A    between atoms: _10  and  _12
REMARK    6  A    between atoms: _12  and  _13
REMARK    7  A    between atoms: _12  and  _15
REMARK    8  A    between atoms: _15  and  _16
REMARK    9  A    between atoms: _19  and  _21
REMARK   10  A    between atoms: _21  and  _22
REMARK   11  A    between atoms: _21  and  _24
REMARK   12  A    between atoms: _24  and  _25
REMARK   13  A    between atoms: _28  and  _30
REMARK   14  A    between atoms: _30  and  _31
REMARK   15  A    between atoms: _30  and  _33
REMARK   16  A    between atoms: _33  and  _34
REMARK   17  A    between atoms: _37  and  _39
REMARK   18  A    between atoms: _39  and  _40
REMARK   19  A    between atoms: _39  and  _42
REMARK   20  A    between atoms: _42  and  _43
REMARK   21  A    between atoms: _46  and  _48
REMARK   22  A    between atoms: _48  and  _49
REMARK   23  A    between atoms: _52  and  _54
REMARK   24  A    between atoms: _54  and  _55
REMARK   25  A    between atoms: _54  and  _57
REMARK   26  A    between atoms: _57  and  _58
REMARK   27  A    between atoms: _63  and  _64
REMARK   28  A    between atoms: _66  and  _68
REMARK   29  A    between atoms: _68  and  _69
REMARK   30  A    between atoms: _68  and  _71
REMARK   31  A    between atoms: _71  and  _72
REMARK   32  A    between atoms: _75  and  _77
REMARK   33  A    between atoms: _77  and  _78
REMARK   34  A    between atoms: _77  and  _80
REMARK   35  A    between atoms: _80  and  _81
REMARK   36  A    between atoms: _87  and  _89
REMARK   37  A    between atoms: _89  and  _90
REMARK   38  A    between atoms: _89  and  _92
REMARK   39  A    between atoms: _92  and  _93
REMARK   40  A    between atoms: _96  and  _98
REMARK   41  A    between atoms: _98  and  _99
REMARK   42  A    between atoms: _98  and  _101
REMARK   43  A    between atoms: _101  and  _102
REMARK   44  A    between atoms: _105  and  _107
REMARK   45  A    between atoms: _107  and  _108
REMARK   46  A    between atoms: _110  and  _112
REMARK   47  A    between atoms: _112  and  _113
REMARK   48  A    between atoms: _112  and  _115
REMARK   49  A    between atoms: _115  and  _116
REMARK   50  A    between atoms: _118  and  _120
REMARK   51  A    between atoms: _120  and  _121
REMARK   52  A    between atoms: _120  and  _123
REMARK   53  A    between atoms: _123  and  _124
REMARK   54  A    between atoms: _126  and  _128
REMARK   55  A    between atoms: _128  and  _129
REMARK   56  A    between atoms: _128  and  _131
REMARK   57  A    between atoms: _131  and  _132
REMARK   58  A    between atoms: _135  and  _137
REMARK   59  A    between atoms: _137  and  _138
REMARK   60  A    between atoms: _137  and  _140
REMARK   61  A    between atoms: _140  and  _141
REMARK   62  A    between atoms: _151  and  _153
REMARK   63  A    between atoms: _153  and  _154
REMARK   64  A    between atoms: _153  and  _156
REMARK   65  A    between atoms: _156  and  _157
REMARK   66  A    between atoms: _159  and  _161
REMARK   67  A    between atoms: _161  and  _162
REMARK   68  A    between atoms: _161  and  _164
REMARK   69  A    between atoms: _164  and  _165
REMARK   70  A    between atoms: _168  and  _170
REMARK   71  A    between atoms: _170  and  _171
REMARK   72  A    between atoms: _170  and  _173
REMARK   73  A    between atoms: _173  and  _174
REMARK   74  A    between atoms: _176  and  _178
REMARK   75  A    between atoms: _178  and  _179
REMARK   76  A    between atoms: _178  and  _181
REMARK   77  A    between atoms: _181  and  _182
REMARK   78  A    between atoms: _187  and  _188
REMARK   79  A    between atoms: _190  and  _192
REMARK   80  A    between atoms: _192  and  _193
REMARK   81  A    between atoms: _195  and  _197
REMARK   82  A    between atoms: _197  and  _198
REMARK   83  A    between atoms: _197  and  _200
REMARK   84  A    between atoms: _200  and  _201
REMARK   85  A    between atoms: _204  and  _206
REMARK   86  A    between atoms: _206  and  _207
REMARK   87  A    between atoms: _209  and  _211
REMARK   88  A    between atoms: _211  and  _212
REMARK   89  A    between atoms: _211  and  _214
REMARK   90  A    between atoms: _214  and  _215
REMARK   91  A    between atoms: _217  and  _219
REMARK   92  A    between atoms: _219  and  _220
REMARK   93  A    between atoms: _219  and  _222
REMARK   94  A    between atoms: _222  and  _223
REMARK   95  A    between atoms: _225  and  _227
REMARK   96  A    between atoms: _227  and  _228
REMARK   97  A    between atoms: _227  and  _230
REMARK   98  A    between atoms: _230  and  _231
REMARK   99  A    between atoms: _233  and  _235
REMARK  100  A    between atoms: _235  and  _236
REMARK  101  A    between atoms: _235  and  _238
REMARK  102  A    between atoms: _238  and  _239
REMARK  103  A    between atoms: _241  and  _243
REMARK  104  A    between atoms: _243  and  _244
REMARK  105  A    between atoms: _243  and  _246
REMARK  106  A    between atoms: _246  and  _247
REMARK  107  A    between atoms: _253  and  _255
REMARK  108  A    between atoms: _255  and  _256
REMARK  109  A    between atoms: _255  and  _258
REMARK  110  A    between atoms: _258  and  _259
REMARK  111  A    between atoms: _259  and  _260
REMARK  112  A    between atoms: _263  and  _265
REMARK  113  A    between atoms: _265  and  _266
REMARK  114  A    between atoms: _265  and  _268
REMARK  115  A    between atoms: _268  and  _269
REMARK  116  A    between atoms: _272  and  _274
REMARK  117  A    between atoms: _274  and  _275
REMARK  118  A    between atoms: _274  and  _277
REMARK  119  A    between atoms: _277  and  _278
REMARK  120  A    between atoms: _280  and  _282
REMARK  121  A    between atoms: _282  and  _283
REMARK  122  A    between atoms: _282  and  _285
REMARK  123  A    between atoms: _285  and  _286
REMARK  124  A    between atoms: _289  and  _291
REMARK  125  A    between atoms: _291  and  _292
REMARK  126  A    between atoms: _291  and  _294
REMARK  127  A    between atoms: _294  and  _295
REMARK  128  A    between atoms: _298  and  _300
REMARK  129  A    between atoms: _300  and  _301
REMARK  130  A    between atoms: _303  and  _305
REMARK  131  A    between atoms: _305  and  _306
REMARK  132  A    between atoms: _305  and  _308
REMARK  133  A    between atoms: _308  and  _309
REMARK  134  A    between atoms: _312  and  _314
REMARK  135  A    between atoms: _314  and  _315
REMARK  136  A    between atoms: _314  and  _317
REMARK  137  A    between atoms: _317  and  _318
REMARK  138  A    between atoms: _321  and  _323
REMARK  139  A    between atoms: _323  and  _324
REMARK  140  A    between atoms: _323  and  _326
REMARK  141  A    between atoms: _326  and  _327
REMARK  142  A    between atoms: _330  and  _332
REMARK  143  A    between atoms: _332  and  _333
REMARK  144  A    between atoms: _336  and  _338
REMARK  145  A    between atoms: _338  and  _339
REMARK  146  A    between atoms: _338  and  _341
REMARK  147  A    between atoms: _341  and  _342
REMARK  148  A    between atoms: _348  and  _350
REMARK  149  A    between atoms: _350  and  _351
REMARK  150  A    between atoms: _350  and  _353
REMARK  151  A    between atoms: _353  and  _354
REMARK  152  A    between atoms: _356  and  _358
REMARK  153  A    between atoms: _358  and  _359
REMARK  154  A    between atoms: _358  and  _361
REMARK  155  A    between atoms: _361  and  _362
REMARK  156  A    between atoms: _365  and  _367
REMARK  157  A    between atoms: _367  and  _368
REMARK  158  A    between atoms: _367  and  _370
REMARK  159  A    between atoms: _370  and  _371
REMARK  160  A    between atoms: _374  and  _376
REMARK  161  A    between atoms: _376  and  _377
REMARK  162  A    between atoms: _376  and  _379
REMARK  163  A    between atoms: _379  and  _380
REMARK  164  A    between atoms: _385  and  _387
REMARK  165  A    between atoms: _387  and  _388
REMARK  166  A    between atoms: _387  and  _390
REMARK  167  A    between atoms: _390  and  _391
REMARK  168  A    between atoms: _394  and  _396
REMARK  169  A    between atoms: _396  and  _397
REMARK  170  A    between atoms: _396  and  _399
REMARK  171  A    between atoms: _402  and  _404
REMARK  172  A    between atoms: _404  and  _405
REMARK  173  A    between atoms: _404  and  _407
REMARK  174  A    between atoms: _407  and  _408
REMARK  175  A    between atoms: _408  and  _409
REMARK  176  A    between atoms: _414  and  _416
REMARK  177  A    between atoms: _416  and  _417
REMARK  178  A    between atoms: _416  and  _419
REMARK  179  A    between atoms: _419  and  _420
REMARK  180  A    between atoms: _420  and  _421
REMARK  181  A    between atoms: _426  and  _428
REMARK  182  A    between atoms: _428  and  _429
REMARK  183  A    between atoms: _428  and  _431
REMARK  184  A    between atoms: _431  and  _432
REMARK  185  A    between atoms: _438  and  _440
REMARK  186  A    between atoms: _440  and  _441
REMARK  187  A    between atoms: _440  and  _443
REMARK  188  A    between atoms: _443  and  _444
REMARK  189  A    between atoms: _454  and  _456
REMARK  190  A    between atoms: _456  and  _457
REMARK  191  A    between atoms: _459  and  _461
REMARK  192  A    between atoms: _461  and  _462
REMARK  193  A    between atoms: _461  and  _464
REMARK  194  A    between atoms: _464  and  _465
REMARK  195  A    between atoms: _468  and  _470
REMARK  196  A    between atoms: _470  and  _471
REMARK  197  A    between atoms: _474  and  _476
REMARK  198  A    between atoms: _476  and  _477
REMARK  199  A    between atoms: _476  and  _479
REMARK  200  A    between atoms: _479  and  _480
REMARK  201  A    between atoms: _483  and  _485
REMARK  202  A    between atoms: _485  and  _486
REMARK  203  A    between atoms: _485  and  _488
REMARK  204  A    between atoms: _488  and  _489
REMARK  205  A    between atoms: _492  and  _494
REMARK  206  A    between atoms: _494  and  _495
REMARK  207  A    between atoms: _497  and  _499
REMARK  208  A    between atoms: _499  and  _500
REMARK  209  A    between atoms: _499  and  _502
REMARK  210  A    between atoms: _502  and  _503
REMARK  211  A    between atoms: _506  and  _508
REMARK  212  A    between atoms: _508  and  _509
REMARK  213  A    between atoms: _508  and  _511
REMARK  214  A    between atoms: _511  and  _512
REMARK  215  A    between atoms: _515  and  _517
REMARK  216  A    between atoms: _517  and  _518
REMARK  217  A    between atoms: _517  and  _520
REMARK  218  A    between atoms: _520  and  _521
REMARK  219  A    between atoms: _524  and  _526
REMARK  220  A    between atoms: _526  and  _527
REMARK  221  A    between atoms: _526  and  _529
REMARK  222  A    between atoms: _529  and  _530
REMARK  223  A    between atoms: _533  and  _535
REMARK  224  A    between atoms: _535  and  _536
REMARK  225  A    between atoms: _535  and  _538
REMARK  226  A    between atoms: _538  and  _539
REMARK  227  A    between atoms: _544  and  _545
REMARK  228  A    between atoms: _547  and  _549
REMARK  229  A    between atoms: _549  and  _550
REMARK  230  A    between atoms: _549  and  _552
REMARK  231  A    between atoms: _555  and  _557
REMARK  232  A    between atoms: _557  and  _558
REMARK  233  A    between atoms: _560  and  _562
REMARK  234  A    between atoms: _562  and  _563
REMARK  235  A    between atoms: _562  and  _565
REMARK  236  A    between atoms: _565  and  _566
REMARK  237  A    between atoms: _572  and  _574
REMARK  238  A    between atoms: _574  and  _575
REMARK  239  A    between atoms: _574  and  _577
REMARK  240  A    between atoms: _577  and  _578
REMARK  241  A    between atoms: _584  and  _586
REMARK  242  A    between atoms: _586  and  _587
REMARK  243  A    between atoms: _589  and  _591
REMARK  244  A    between atoms: _591  and  _592
REMARK  245  A    between atoms: _594  and  _596
REMARK  246  A    between atoms: _596  and  _597
REMARK  247  A    between atoms: _596  and  _599
REMARK  248  A    between atoms: _599  and  _600
REMARK  249  A    between atoms: _600  and  _601
REMARK  250  A    between atoms: _606  and  _608
REMARK  251  A    between atoms: _608  and  _609
REMARK  252  A    between atoms: _608  and  _611
REMARK  253  A    between atoms: _611  and  _612
REMARK  254  A    between atoms: _614  and  _616
REMARK  255  A    between atoms: _616  and  _617
REMARK  256  A    between atoms: _619  and  _621
REMARK  257  A    between atoms: _621  and  _622
REMARK  258  A    between atoms: _621  and  _624
REMARK  259  A    between atoms: _624  and  _625
REMARK  260  A    between atoms: _628  and  _630
REMARK  261  A    between atoms: _630  and  _631
REMARK  262  A    between atoms: _633  and  _635
REMARK  263  A    between atoms: _635  and  _636
REMARK  264  A    between atoms: _635  and  _638
REMARK  265  A    between atoms: _638  and  _639
REMARK  266  A    between atoms: _642  and  _644
REMARK  267  A    between atoms: _644  and  _645
REMARK  268  A    between atoms: _644  and  _647
REMARK  269  A    between atoms: _647  and  _648
REMARK  270  A    between atoms: _653  and  _655
REMARK  271  A    between atoms: _655  and  _656
REMARK  272  A    between atoms: _655  and  _658
REMARK  273  A    between atoms: _658  and  _659
REMARK  274  A    between atoms: _662  and  _664
REMARK  275  A    between atoms: _664  and  _665
REMARK  276  A    between atoms: _664  and  _667
REMARK  277  A    between atoms: _667  and  _668
REMARK  278  A    between atoms: _674  and  _676
REMARK  279  A    between atoms: _676  and  _677
REMARK  280  A    between atoms: _679  and  _681
REMARK  281  A    between atoms: _681  and  _682
REMARK  282  A    between atoms: _681  and  _684
REMARK  283  A    between atoms: _684  and  _685
REMARK                            x       y       z     vdW  Elec       q    Type
REMARK                         _______ _______ _______ _____ _____    ______ ____
ROOT
ATOM      1  O   HOH     1       3.564  30.943  19.885  0.00  0.00    +0.000 OA
ENDROOT
TORSDOF 0
REMARK  Name = ../refined-set-2016/5er2/5er2_pocket.pdb
REMARK  283 active torsions:
REMARK  status: ('A' for Active; 'I' for Inactive)
REMARK    1  A    between atoms: _1  and  _3
REMARK    2  A    between atoms: _3  and  _4
REMARK    3  A    between atoms: _3  and  _6
REMARK    4  A    between atoms: _6  and  _7
REMARK    5  A    between atoms: _10  and  _12
REMARK    6  A    between atoms: _12  and  _13
REMARK    7  A    between atoms: _12  and  _15
REMARK    8  A    between atoms: _15  and  _16
REMARK    9  A    between atoms: _19  and  _21
REMARK   10  A    between atoms: _21  and  _22
REMARK   11  A    between atoms: _21  and  _24
REMARK   12  A    between atoms: _24  and  _25
REMARK   13  A    between atoms: _28  and  _30
REMARK   14  A    between atoms: _30  and  _31
REMARK   15  A    between atoms: _30  and  _33
REMARK   16  A    between atoms: _33  and  _34
REMARK   17  A    between atoms: _37  and  _39
REMARK   18  A    between atoms: _39  and  _40
REMARK   19  A    between atoms: _39  and  _42
REMARK   20  A    between atoms: _42  and  _43
REMARK   21  A    between atoms: _46  and  _48
REMARK   22  A    between atoms: _48  and  _49
REMARK   23  A    between atoms: _52  and  _54
REMARK   24  A    between atoms: _54  and  _55
REMARK   25  A    between atoms: _54  and  _57
REMARK   26  A    between atoms: _57  and  _58
REMARK   27  A    between atoms: _63  and  _64
REMARK   28  A    between atoms: _66  and  _68
REMARK   29  A    between atoms: _68  and  _69
REMARK   30  A    between atoms: _68  and  _71
REMARK   31  A    between atoms: _71  and  _72
REMARK   32  A    between atoms: _75  and  _77
REMARK   33  A    between atoms: _77  and  _78
REMARK   34  A    between atoms: _77  and  _80
REMARK   35  A    between atoms: _80  and  _81
REMARK   36  A    between atoms: _87  and  _89
REMARK   37  A    between atoms: _89  and  _90
REMARK   38  A    between atoms: _89  and  _92
REMARK   39  A    between atoms: _92  and  _93
REMARK   40  A    between atoms: _96  and  _98
REMARK   41  A    between atoms: _98  and  _99
REMARK   42  A    between atoms: _98  and  _101
REMARK   43  A    between atoms: _101  and  _102
REMARK   44  A    between atoms: _105  and  _107
REMARK   45  A    between atoms: _107  and  _108
REMARK   46  A    between atoms: _110  and  _112
REMARK   47  A    between atoms: _112  and  _113
REMARK   48  A    between atoms: _112  and  _115
REMARK   49  A    between atoms: _115  and  _116
REMARK   50  A    between atoms: _118  and  _120
REMARK   51  A    between atoms: _120  and  _121
REMARK   52  A    between atoms: _120  and  _123
REMARK   53  A    between atoms: _123  and  _124
REMARK   54  A    between atoms: _126  and  _128
REMARK   55  A    between atoms: _128  and  _129
REMARK   56  A    between atoms: _128  and  _131
REMARK   57  A    between atoms: _131  and  _132
REMARK   58  A    between atoms: _135  and  _137
REMARK   59  A    between atoms: _137  and  _138
REMARK   60  A    between atoms: _137  and  _140
REMARK   61  A    between atoms: _140  and  _141
REMARK   62  A    between atoms: _151  and  _153
REMARK   63  A    between atoms: _153  and  _154
REMARK   64  A    between atoms: _153  and  _156
REMARK   65  A    between atoms: _156  and  _157
REMARK   66  A    between atoms: _159  and  _161
REMARK   67  A    between atoms: _161  and  _162
REMARK   68  A    between atoms: _161  and  _164
REMARK   69  A    between atoms: _164  and  _165
REMARK   70  A    between atoms: _168  and  _170
REMARK   71  A    between atoms: _170  and  _171
REMARK   72  A    between atoms: _170  and  _173
REMARK   73  A    between atoms: _173  and  _174
REMARK   74  A    between atoms: _176  and  _178
REMARK   75  A    between atoms: _178  and  _179
REMARK   76  A    between atoms: _178  and  _181
REMARK   77  A    between atoms: _181  and  _182
REMARK   78  A    between atoms: _187  and  _188
REMARK   79  A    between atoms: _190  and  _192
REMARK   80  A    between atoms: _192  and  _193
REMARK   81  A    between atoms: _195  and  _197
REMARK   82  A    between atoms: _197  and  _198
REMARK   83  A    between atoms: _197  and  _200
REMARK   84  A    between atoms: _200  and  _201
REMARK   85  A    between atoms: _204  and  _206
REMARK   86  A    between atoms: _206  and  _207
REMARK   87  A    between atoms: _209  and  _211
REMARK   88  A    between atoms: _211  and  _212
REMARK   89  A    between atoms: _211  and  _214
REMARK   90  A    between atoms: _214  and  _215
REMARK   91  A    between atoms: _217  and  _219
REMARK   92  A    between atoms: _219  and  _220
REMARK   93  A    between atoms: _219  and  _222
REMARK   94  A    between atoms: _222  and  _223
REMARK   95  A    between atoms: _225  and  _227
REMARK   96  A    between atoms: _227  and  _228
REMARK   97  A    between atoms: _227  and  _230
REMARK   98  A    between atoms: _230  and  _231
REMARK   99  A    between atoms: _233  and  _235
REMARK  100  A    between atoms: _235  and  _236
REMARK  101  A    between atoms: _235  and  _238
REMARK  102  A    between atoms: _238  and  _239
REMARK  103  A    between atoms: _241  and  _243
REMARK  104  A    between atoms: _243  and  _244
REMARK  105  A    between atoms: _243  and  _246
REMARK  106  A    between atoms: _246  and  _247
REMARK  107  A    between atoms: _253  and  _255
REMARK  108  A    between atoms: _255  and  _256
REMARK  109  A    between atoms: _255  and  _258
REMARK  110  A    between atoms: _258  and  _259
REMARK  111  A    between atoms: _259  and  _260
REMARK  112  A    between atoms: _263  and  _265
REMARK  113  A    between atoms: _265  and  _266
REMARK  114  A    between atoms: _265  and  _268
REMARK  115  A    between atoms: _268  and  _269
REMARK  116  A    between atoms: _272  and  _274
REMARK  117  A    between atoms: _274  and  _275
REMARK  118  A    between atoms: _274  and  _277
REMARK  119  A    between atoms: _277  and  _278
REMARK  120  A    between atoms: _280  and  _282
REMARK  121  A    between atoms: _282  and  _283
REMARK  122  A    between atoms: _282  and  _285
REMARK  123  A    between atoms: _285  and  _286
REMARK  124  A    between atoms: _289  and  _291
REMARK  125  A    between atoms: _291  and  _292
REMARK  126  A    between atoms: _291  and  _294
REMARK  127  A    between atoms: _294  and  _295
REMARK  128  A    between atoms: _298  and  _300
REMARK  129  A    between atoms: _300  and  _301
REMARK  130  A    between atoms: _303  and  _305
REMARK  131  A    between atoms: _305  and  _306
REMARK  132  A    between atoms: _305  and  _308
REMARK  133  A    between atoms: _308  and  _309
REMARK  134  A    between atoms: _312  and  _314
REMARK  135  A    between atoms: _314  and  _315
REMARK  136  A    between atoms: _314  and  _317
REMARK  137  A    between atoms: _317  and  _318
REMARK  138  A    between atoms: _321  and  _323
REMARK  139  A    between atoms: _323  and  _324
REMARK  140  A    between atoms: _323  and  _326
REMARK  141  A    between atoms: _326  and  _327
REMARK  142  A    between atoms: _330  and  _332
REMARK  143  A    between atoms: _332  and  _333
REMARK  144  A    between atoms: _336  and  _338
REMARK  145  A    between atoms: _338  and  _339
REMARK  146  A    between atoms: _338  and  _341
REMARK  147  A    between atoms: _341  and  _342
REMARK  148  A    between atoms: _348  and  _350
REMARK  149  A    between atoms: _350  and  _351
REMARK  150  A    between atoms: _350  and  _353
REMARK  151  A    between atoms: _353  and  _354
REMARK  152  A    between atoms: _356  and  _358
REMARK  153  A    between atoms: _358  and  _359
REMARK  154  A    between atoms: _358  and  _361
REMARK  155  A    between atoms: _361  and  _362
REMARK  156  A    between atoms: _365  and  _367
REMARK  157  A    between atoms: _367  and  _368
REMARK  158  A    between atoms: _367  and  _370
REMARK  159  A    between atoms: _370  and  _371
REMARK  160  A    between atoms: _374  and  _376
REMARK  161  A    between atoms: _376  and  _377
REMARK  162  A    between atoms: _376  and  _379
REMARK  163  A    between atoms: _379  and  _380
REMARK  164  A    between atoms: _385  and  _387
REMARK  165  A    between atoms: _387  and  _388
REMARK  166  A    between atoms: _387  and  _390
REMARK  167  A    between atoms: _390  and  _391
REMARK  168  A    between atoms: _394  and  _396
REMARK  169  A    between atoms: _396  and  _397
REMARK  170  A    between atoms: _396  and  _399
REMARK  171  A    between atoms: _402  and  _404
REMARK  172  A    between atoms: _404  and  _405
REMARK  173  A    between atoms: _404  and  _407
REMARK  174  A    between atoms: _407  and  _408
REMARK  175  A    between atoms: _408  and  _409
REMARK  176  A    between atoms: _414  and  _416
REMARK  177  A    between atoms: _416  and  _417
REMARK  178  A    between atoms: _416  and  _419
REMARK  179  A    between atoms: _419  and  _420
REMARK  180  A    between atoms: _420  and  _421
REMARK  181  A    between atoms: _426  and  _428
REMARK  182  A    between atoms: _428  and  _429
REMARK  183  A    between atoms: _428  and  _431
REMARK  184  A    between atoms: _431  and  _432
REMARK  185  A    between atoms: _438  and  _440
REMARK  186  A    between atoms: _440  and  _441
REMARK  187  A    between atoms: _440  and  _443
REMARK  188  A    between atoms: _443  and  _444
REMARK  189  A    between atoms: _454  and  _456
REMARK  190  A    between atoms: _456  and  _457
REMARK  191  A    between atoms: _459  and  _461
REMARK  192  A    between atoms: _461  and  _462
REMARK  193  A    between atoms: _461  and  _464
REMARK  194  A    between atoms: _464  and  _465
REMARK  195  A    between atoms: _468  and  _470
REMARK  196  A    between atoms: _470  and  _471
REMARK  197  A    between atoms: _474  and  _476
REMARK  198  A    between atoms: _476  and  _477
REMARK  199  A    between atoms: _476  and  _479
REMARK  200  A    between atoms: _479  and  _480
REMARK  201  A    between atoms: _483  and  _485
REMARK  202  A    between atoms: _485  and  _486
REMARK  203  A    between atoms: _485  and  _488
REMARK  204  A    between atoms: _488  and  _489
REMARK  205  A    between atoms: _492  and  _494
REMARK  206  A    between atoms: _494  and  _495
REMARK  207  A    between atoms: _497  and  _499
REMARK  208  A    between atoms: _499  and  _500
REMARK  209  A    between atoms: _499  and  _502
REMARK  210  A    between atoms: _502  and  _503
REMARK  211  A    between atoms: _506  and  _508
REMARK  212  A    between atoms: _508  and  _509
REMARK  213  A    between atoms: _508  and  _511
REMARK  214  A    between atoms: _511  and  _512
REMARK  215  A    between atoms: _515  and  _517
REMARK  216  A    between atoms: _517  and  _518
REMARK  217  A    between atoms: _517  and  _520
REMARK  218  A    between atoms: _520  and  _521
REMARK  219  A    between atoms: _524  and  _526
REMARK  220  A    between atoms: _526  and  _527
REMARK  221  A    between atoms: _526  and  _529
REMARK  222  A    between atoms: _529  and  _530
REMARK  223  A    between atoms: _533  and  _535
REMARK  224  A    between atoms: _535  and  _536
REMARK  225  A    between atoms: _535  and  _538
REMARK  226  A    between atoms: _538  and  _539
REMARK  227  A    between atoms: _544  and  _545
REMARK  228  A    between atoms: _547  and  _549
REMARK  229  A    between atoms: _549  and  _550
REMARK  230  A    between atoms: _549  and  _552
REMARK  231  A    between atoms: _555  and  _557
REMARK  232  A    between atoms: _557  and  _558
REMARK  233  A    between atoms: _560  and  _562
REMARK  234  A    between atoms: _562  and  _563
REMARK  235  A    between atoms: _562  and  _565
REMARK  236  A    between atoms: _565  and  _566
REMARK  237  A    between atoms: _572  and  _574
REMARK  238  A    between atoms: _574  and  _575
REMARK  239  A    between atoms: _574  and  _577
REMARK  240  A    between atoms: _577  and  _578
REMARK  241  A    between atoms: _584  and  _586
REMARK  242  A    between atoms: _586  and  _587
REMARK  243  A    between atoms: _589  and  _591
REMARK  244  A    between atoms: _591  and  _592
REMARK  245  A    between atoms: _594  and  _596
REMARK  246  A    between atoms: _596  and  _597
REMARK  247  A    between atoms: _596  and  _599
REMARK  248  A    between atoms: _599  and  _600
REMARK  249  A    between atoms: _600  and  _601
REMARK  250  A    between atoms: _606  and  _608
REMARK  251  A    between atoms: _608  and  _609
REMARK  252  A    between atoms: _608  and  _611
REMARK  253  A    between atoms: _611  and  _612
REMARK  254  A    between atoms: _614  and  _616
REMARK  255  A    between atoms: _616  and  _617
REMARK  256  A    between atoms: _619  and  _621
REMARK  257  A    between atoms: _621  and  _622
REMARK  258  A    between atoms: _621  and  _624
REMARK  259  A    between atoms: _624  and  _625
REMARK  260  A    between atoms: _628  and  _630
REMARK  261  A    between atoms: _630  and  _631
REMARK  262  A    between atoms: _633  and  _635
REMARK  263  A    between atoms: _635  and  _636
REMARK  264  A    between atoms: _635  and  _638
REMARK  265  A    between atoms: _638  and  _639
REMARK  266  A    between atoms: _642  and  _644
REMARK  267  A    between atoms: _644  and  _645
REMARK  268  A    between atoms: _644  and  _647
REMARK  269  A    between atoms: _647  and  _648
REMARK  270  A    between atoms: _653  and  _655
REMARK  271  A    between atoms: _655  and  _656
REMARK  272  A    between atoms: _655  and  _658
REMARK  273  A    between atoms: _658  and  _659
REMARK  274  A    between atoms: _662  and  _664
REMARK  275  A    between atoms: _664  and  _665
REMARK  276  A    between atoms: _664  and  _667
REMARK  277  A    between atoms: _667  and  _668
REMARK  278  A    between atoms: _674  and  _676
REMARK  279  A    between atoms: _676  and  _677
REMARK  280  A    between atoms: _679  and  _681
REMARK  281  A    between atoms: _681  and  _682
REMARK  282  A    between atoms: _681  and  _684
REMARK  283  A    between atoms: _684  and  _685
REMARK                            x       y       z     vdW  Elec       q    Type
REMARK                         _______ _______ _______ _____ _____    ______ ____
ROOT
ATOM      1  O   HOH     1       5.546  31.707  22.036  0.00  0.00    +0.000 OA
ENDROOT
TORSDOF 0
REMARK  Name = ../refined-set-2016/5er2/5er2_pocket.pdb
REMARK  283 active torsions:
REMARK  status: ('A' for Active; 'I' for Inactive)
REMARK    1  A    between atoms: _1  and  _3
REMARK    2  A    between atoms: _3  and  _4
REMARK    3  A    between atoms: _3  and  _6
REMARK    4  A    between atoms: _6  and  _7
REMARK    5  A    between atoms: _10  and  _12
REMARK    6  A    between atoms: _12  and  _13
REMARK    7  A    between atoms: _12  and  _15
REMARK    8  A    between atoms: _15  and  _16
REMARK    9  A    between atoms: _19  and  _21
REMARK   10  A    between atoms: _21  and  _22
REMARK   11  A    between atoms: _21  and  _24
REMARK   12  A    between atoms: _24  and  _25
REMARK   13  A    between atoms: _28  and  _30
REMARK   14  A    between atoms: _30  and  _31
REMARK   15  A    between atoms: _30  and  _33
REMARK   16  A    between atoms: _33  and  _34
REMARK   17  A    between atoms: _37  and  _39
REMARK   18  A    between atoms: _39  and  _40
REMARK   19  A    between atoms: _39  and  _42
REMARK   20  A    between atoms: _42  and  _43
REMARK   21  A    between atoms: _46  and  _48
REMARK   22  A    between atoms: _48  and  _49
REMARK   23  A    between atoms: _52  and  _54
REMARK   24  A    between atoms: _54  and  _55
REMARK   25  A    between atoms: _54  and  _57
REMARK   26  A    between atoms: _57  and  _58
REMARK   27  A    between atoms: _63  and  _64
REMARK   28  A    between atoms: _66  and  _68
REMARK   29  A    between atoms: _68  and  _69
REMARK   30  A    between atoms: _68  and  _71
REMARK   31  A    between atoms: _71  and  _72
REMARK   32  A    between atoms: _75  and  _77
REMARK   33  A    between atoms: _77  and  _78
REMARK   34  A    between atoms: _77  and  _80
REMARK   35  A    between atoms: _80  and  _81
REMARK   36  A    between atoms: _87  and  _89
REMARK   37  A    between atoms: _89  and  _90
REMARK   38  A    between atoms: _89  and  _92
REMARK   39  A    between atoms: _92  and  _93
REMARK   40  A    between atoms: _96  and  _98
REMARK   41  A    between atoms: _98  and  _99
REMARK   42  A    between atoms: _98  and  _101
REMARK   43  A    between atoms: _101  and  _102
REMARK   44  A    between atoms: _105  and  _107
REMARK   45  A    between atoms: _107  and  _108
REMARK   46  A    between atoms: _110  and  _112
REMARK   47  A    between atoms: _112  and  _113
REMARK   48  A    between atoms: _112  and  _115
REMARK   49  A    between atoms: _115  and  _116
REMARK   50  A    between atoms: _118  and  _120
REMARK   51  A    between atoms: _120  and  _121
REMARK   52  A    between atoms: _120  and  _123
REMARK   53  A    between atoms: _123  and  _124
REMARK   54  A    between atoms: _126  and  _128
REMARK   55  A    between atoms: _128  and  _129
REMARK   56  A    between atoms: _128  and  _131
REMARK   57  A    between atoms: _131  and  _132
REMARK   58  A    between atoms: _135  and  _137
REMARK   59  A    between atoms: _137  and  _138
REMARK   60  A    between atoms: _137  and  _140
REMARK   61  A    between atoms: _140  and  _141
REMARK   62  A    between atoms: _151  and  _153
REMARK   63  A    between atoms: _153  and  _154
REMARK   64  A    between atoms: _153  and  _156
REMARK   65  A    between atoms: _156  and  _157
REMARK   66  A    between atoms: _159  and  _161
REMARK   67  A    between atoms: _161  and  _162
REMARK   68  A    between atoms: _161  and  _164
REMARK   69  A    between atoms: _164  and  _165
REMARK   70  A    between atoms: _168  and  _170
REMARK   71  A    between atoms: _170  and  _171
REMARK   72  A    between atoms: _170  and  _173
REMARK   73  A    between atoms: _173  and  _174
REMARK   74  A    between atoms: _176  and  _178
REMARK   75  A    between atoms: _178  and  _179
REMARK   76  A    between atoms: _178  and  _181
REMARK   77  A    between atoms: _181  and  _182
REMARK   78  A    between atoms: _187  and  _188
REMARK   79  A    between atoms: _190  and  _192
REMARK   80  A    between atoms: _192  and  _193
REMARK   81  A    between atoms: _195  and  _197
REMARK   82  A    between atoms: _197  and  _198
REMARK   83  A    between atoms: _197  and  _200
REMARK   84  A    between atoms: _200  and  _201
REMARK   85  A    between atoms: _204  and  _206
REMARK   86  A    between atoms: _206  and  _207
REMARK   87  A    between atoms: _209  and  _211
REMARK   88  A    between atoms: _211  and  _212
REMARK   89  A    between atoms: _211  and  _214
REMARK   90  A    between atoms: _214  and  _215
REMARK   91  A    between atoms: _217  and  _219
REMARK   92  A    between atoms: _219  and  _220
REMARK   93  A    between atoms: _219  and  _222
REMARK   94  A    between atoms: _222  and  _223
REMARK   95  A    between atoms: _225  and  _227
REMARK   96  A    between atoms: _227  and  _228
REMARK   97  A    between atoms: _227  and  _230
REMARK   98  A    between atoms: _230  and  _231
REMARK   99  A    between atoms: _233  and  _235
REMARK  100  A    between atoms: _235  and  _236
REMARK  101  A    between atoms: _235  and  _238
REMARK  102  A    between atoms: _238  and  _239
REMARK  103  A    between atoms: _241  and  _243
REMARK  104  A    between atoms: _243  and  _244
REMARK  105  A    between atoms: _243  and  _246
REMARK  106  A    between atoms: _246  and  _247
REMARK  107  A    between atoms: _253  and  _255
REMARK  108  A    between atoms: _255  and  _256
REMARK  109  A    between atoms: _255  and  _258
REMARK  110  A    between atoms: _258  and  _259
REMARK  111  A    between atoms: _259  and  _260
REMARK  112  A    between atoms: _263  and  _265
REMARK  113  A    between atoms: _265  and  _266
REMARK  114  A    between atoms: _265  and  _268
REMARK  115  A    between atoms: _268  and  _269
REMARK  116  A    between atoms: _272  and  _274
REMARK  117  A    between atoms: _274  and  _275
REMARK  118  A    between atoms: _274  and  _277
REMARK  119  A    between atoms: _277  and  _278
REMARK  120  A    between atoms: _280  and  _282
REMARK  121  A    between atoms: _282  and  _283
REMARK  122  A    between atoms: _282  and  _285
REMARK  123  A    between atoms: _285  and  _286
REMARK  124  A    between atoms: _289  and  _291
REMARK  125  A    between atoms: _291  and  _292
REMARK  126  A    between atoms: _291  and  _294
REMARK  127  A    between atoms: _294  and  _295
REMARK  128  A    between atoms: _298  and  _300
REMARK  129  A    between atoms: _300  and  _301
REMARK  130  A    between atoms: _303  and  _305
REMARK  131  A    between atoms: _305  and  _306
REMARK  132  A    between atoms: _305  and  _308
REMARK  133  A    between atoms: _308  and  _309
REMARK  134  A    between atoms: _312  and  _314
REMARK  135  A    between atoms: _314  and  _315
REMARK  136  A    between atoms: _314  and  _317
REMARK  137  A    between atoms: _317  and  _318
REMARK  138  A    between atoms: _321  and  _323
REMARK  139  A    between atoms: _323  and  _324
REMARK  140  A    between atoms: _323  and  _326
REMARK  141  A    between atoms: _326  and  _327
REMARK  142  A    between atoms: _330  and  _332
REMARK  143  A    between atoms: _332  and  _333
REMARK  144  A    between atoms: _336  and  _338
REMARK  145  A    between atoms: _338  and  _339
REMARK  146  A    between atoms: _338  and  _341
REMARK  147  A    between atoms: _341  and  _342
REMARK  148  A    between atoms: _348  and  _350
REMARK  149  A    between atoms: _350  and  _351
REMARK  150  A    between atoms: _350  and  _353
REMARK  151  A    between atoms: _353  and  _354
REMARK  152  A    between atoms: _356  and  _358
REMARK  153  A    between atoms: _358  and  _359
REMARK  154  A    between atoms: _358  and  _361
REMARK  155  A    between atoms: _361  and  _362
REMARK  156  A    between atoms: _365  and  _367
REMARK  157  A    between atoms: _367  and  _368
REMARK  158  A    between atoms: _367  and  _370
REMARK  159  A    between atoms: _370  and  _371
REMARK  160  A    between atoms: _374  and  _376
REMARK  161  A    between atoms: _376  and  _377
REMARK  162  A    between atoms: _376  and  _379
REMARK  163  A    between atoms: _379  and  _380
REMARK  164  A    between atoms: _385  and  _387
REMARK  165  A    between atoms: _387  and  _388
REMARK  166  A    between atoms: _387  and  _390
REMARK  167  A    between atoms: _390  and  _391
REMARK  168  A    between atoms: _394  and  _396
REMARK  169  A    between atoms: _396  and  _397
REMARK  170  A    between atoms: _396  and  _399
REMARK  171  A    between atoms: _402  and  _404
REMARK  172  A    between atoms: _404  and  _405
REMARK  173  A    between atoms: _404  and  _407
REMARK  174  A    between atoms: _407  and  _408
REMARK  175  A    between atoms: _408  and  _409
REMARK  176  A    between atoms: _414  and  _416
REMARK  177  A    between atoms: _416  and  _417
REMARK  178  A    between atoms: _416  and  _419
REMARK  179  A    between atoms: _419  and  _420
REMARK  180  A    between atoms: _420  and  _421
REMARK  181  A    between atoms: _426  and  _428
REMARK  182  A    between atoms: _428  and  _429
REMARK  183  A    between atoms: _428  and  _431
REMARK  184  A    between atoms: _431  and  _432
REMARK  185  A    between atoms: _438  and  _440
REMARK  186  A    between atoms: _440  and  _441
REMARK  187  A    between atoms: _440  and  _443
REMARK  188  A    between atoms: _443  and  _444
REMARK  189  A    between atoms: _454  and  _456
REMARK  190  A    between atoms: _456  and  _457
REMARK  191  A    between atoms: _459  and  _461
REMARK  192  A    between atoms: _461  and  _462
REMARK  193  A    between atoms: _461  and  _464
REMARK  194  A    between atoms: _464  and  _465
REMARK  195  A    between atoms: _468  and  _470
REMARK  196  A    between atoms: _470  and  _471
REMARK  197  A    between atoms: _474  and  _476
REMARK  198  A    between atoms: _476  and  _477
REMARK  199  A    between atoms: _476  and  _479
REMARK  200  A    between atoms: _479  and  _480
REMARK  201  A    between atoms: _483  and  _485
REMARK  202  A    between atoms: _485  and  _486
REMARK  203  A    between atoms: _485  and  _488
REMARK  204  A    between atoms: _488  and  _489
REMARK  205  A    between atoms: _492  and  _494
REMARK  206  A    between atoms: _494  and  _495
REMARK  207  A    between atoms: _497  and  _499
REMARK  208  A    between atoms: _499  and  _500
REMARK  209  A    between atoms: _499  and  _502
REMARK  210  A    between atoms: _502  and  _503
REMARK  211  A    between atoms: _506  and  _508
REMARK  212  A    between atoms: _508  and  _509
REMARK  213  A    between atoms: _508  and  _511
REMARK  214  A    between atoms: _511  and  _512
REMARK  215  A    between atoms: _515  and  _517
REMARK  216  A    between atoms: _517  and  _518
REMARK  217  A    between atoms: _517  and  _520
REMARK  218  A    between atoms: _520  and  _521
REMARK  219  A    between atoms: _524  and  _526
REMARK  220  A    between atoms: _526  and  _527
REMARK  221  A    between atoms: _526  and  _529
REMARK  222  A    between atoms: _529  and  _530
REMARK  223  A    between atoms: _533  and  _535
REMARK  224  A    between atoms: _535  and  _536
REMARK  225  A    between atoms: _535  and  _538
REMARK  226  A    between atoms: _538  and  _539
REMARK  227  A    between atoms: _544  and  _545
REMARK  228  A    between atoms: _547  and  _549
REMARK  229  A    between atoms: _549  and  _550
REMARK  230  A    between atoms: _549  and  _552
REMARK  231  A    between atoms: _555  and  _557
REMARK  232  A    between atoms: _557  and  _558
REMARK  233  A    between atoms: _560  and  _562
REMARK  234  A    between atoms: _562  and  _563
REMARK  235  A    between atoms: _562  and  _565
REMARK  236  A    between atoms: _565  and  _566
REMARK  237  A    between atoms: _572  and  _574
REMARK  238  A    between atoms: _574  and  _575
REMARK  239  A    between atoms: _574  and  _577
REMARK  240  A    between atoms: _577  and  _578
REMARK  241  A    between atoms: _584  and  _586
REMARK  242  A    between atoms: _586  and  _587
REMARK  243  A    between atoms: _589  and  _591
REMARK  244  A    between atoms: _591  and  _592
REMARK  245  A    between atoms: _594  and  _596
REMARK  246  A    between atoms: _596  and  _597
REMARK  247  A    between atoms: _596  and  _599
REMARK  248  A    between atoms: _599  and  _600
REMARK  249  A    between atoms: _600  and  _601
REMARK  250  A    between atoms: _606  and  _608
REMARK  251  A    between atoms: _608  and  _609
REMARK  252  A    between atoms: _608  and  _611
REMARK  253  A    between atoms: _611  and  _612
REMARK  254  A    between atoms: _614  and  _616
REMARK  255  A    between atoms: _616  and  _617
REMARK  256  A    between atoms: _619  and  _621
REMARK  257  A    between atoms: _621  and  _622
REMARK  258  A    between atoms: _621  and  _624
REMARK  259  A    between atoms: _624  and  _625
REMARK  260  A    between atoms: _628  and  _630
REMARK  261  A    between atoms: _630  and  _631
REMARK  262  A    between atoms: _633  and  _635
REMARK  263  A    between atoms: _635  and  _636
REMARK  264  A    between atoms: _635  and  _638
REMARK  265  A    between atoms: _638  and  _639
REMARK  266  A    between atoms: _642  and  _644
REMARK  267  A    between atoms: _644  and  _645
REMARK  268  A    between atoms: _644  and  _647
REMARK  269  A    between atoms: _647  and  _648
REMARK  270  A    between atoms: _653  and  _655
REMARK  271  A    between atoms: _655  and  _656
REMARK  272  A    between atoms: _655  and  _658
REMARK  273  A    between atoms: _658  and  _659
REMARK  274  A    between atoms: _662  and  _664
REMARK  275  A    between atoms: _664  and  _665
REMARK  276  A    between atoms: _664  and  _667
REMARK  277  A    between atoms: _667  and  _668
REMARK  278  A    between atoms: _674  and  _676
REMARK  279  A    between atoms: _676  and  _677
REMARK  280  A    between atoms: _679  and  _681
REMARK  281  A    between atoms: _681  and  _682
REMARK  282  A    between atoms: _681  and  _684
REMARK  283  A    between atoms: _684  and  _685
REMARK                            x       y       z     vdW  Elec       q    Type
REMARK                         _______ _______ _______ _____ _____    ______ ____
ROOT
ATOM      1  O   HOH     1       1.211  25.760  16.197  0.00  0.00    +0.000 OA
ENDROOT
TORSDOF 0
REMARK  Name = ../refined-set-2016/5er2/5er2_pocket.pdb
REMARK  283 active torsions:
REMARK  status: ('A' for Active; 'I' for Inactive)
REMARK    1  A    between atoms: _1  and  _3
REMARK    2  A    between atoms: _3  and  _4
REMARK    3  A    between atoms: _3  and  _6
REMARK    4  A    between atoms: _6  and  _7
REMARK    5  A    between atoms: _10  and  _12
REMARK    6  A    between atoms: _12  and  _13
REMARK    7  A    between atoms: _12  and  _15
REMARK    8  A    between atoms: _15  and  _16
REMARK    9  A    between atoms: _19  and  _21
REMARK   10  A    between atoms: _21  and  _22
REMARK   11  A    between atoms: _21  and  _24
REMARK   12  A    between atoms: _24  and  _25
REMARK   13  A    between atoms: _28  and  _30
REMARK   14  A    between atoms: _30  and  _31
REMARK   15  A    between atoms: _30  and  _33
REMARK   16  A    between atoms: _33  and  _34
REMARK   17  A    between atoms: _37  and  _39
REMARK   18  A    between atoms: _39  and  _40
REMARK   19  A    between atoms: _39  and  _42
REMARK   20  A    between atoms: _42  and  _43
REMARK   21  A    between atoms: _46  and  _48
REMARK   22  A    between atoms: _48  and  _49
REMARK   23  A    between atoms: _52  and  _54
REMARK   24  A    between atoms: _54  and  _55
REMARK   25  A    between atoms: _54  and  _57
REMARK   26  A    between atoms: _57  and  _58
REMARK   27  A    between atoms: _63  and  _64
REMARK   28  A    between atoms: _66  and  _68
REMARK   29  A    between atoms: _68  and  _69
REMARK   30  A    between atoms: _68  and  _71
REMARK   31  A    between atoms: _71  and  _72
REMARK   32  A    between atoms: _75  and  _77
REMARK   33  A    between atoms: _77  and  _78
REMARK   34  A    between atoms: _77  and  _80
REMARK   35  A    between atoms: _80  and  _81
REMARK   36  A    between atoms: _87  and  _89
REMARK   37  A    between atoms: _89  and  _90
REMARK   38  A    between atoms: _89  and  _92
REMARK   39  A    between atoms: _92  and  _93
REMARK   40  A    between atoms: _96  and  _98
REMARK   41  A    between atoms: _98  and  _99
REMARK   42  A    between atoms: _98  and  _101
REMARK   43  A    between atoms: _101  and  _102
REMARK   44  A    between atoms: _105  and  _107
REMARK   45  A    between atoms: _107  and  _108
REMARK   46  A    between atoms: _110  and  _112
REMARK   47  A    between atoms: _112  and  _113
REMARK   48  A    between atoms: _112  and  _115
REMARK   49  A    between atoms: _115  and  _116
REMARK   50  A    between atoms: _118  and  _120
REMARK   51  A    between atoms: _120  and  _121
REMARK   52  A    between atoms: _120  and  _123
REMARK   53  A    between atoms: _123  and  _124
REMARK   54  A    between atoms: _126  and  _128
REMARK   55  A    between atoms: _128  and  _129
REMARK   56  A    between atoms: _128  and  _131
REMARK   57  A    between atoms: _131  and  _132
REMARK   58  A    between atoms: _135  and  _137
REMARK   59  A    between atoms: _137  and  _138
REMARK   60  A    between atoms: _137  and  _140
REMARK   61  A    between atoms: _140  and  _141
REMARK   62  A    between atoms: _151  and  _153
REMARK   63  A    between atoms: _153  and  _154
REMARK   64  A    between atoms: _153  and  _156
REMARK   65  A    between atoms: _156  and  _157
REMARK   66  A    between atoms: _159  and  _161
REMARK   67  A    between atoms: _161  and  _162
REMARK   68  A    between atoms: _161  and  _164
REMARK   69  A    between atoms: _164  and  _165
REMARK   70  A    between atoms: _168  and  _170
REMARK   71  A    between atoms: _170  and  _171
REMARK   72  A    between atoms: _170  and  _173
REMARK   73  A    between atoms: _173  and  _174
REMARK   74  A    between atoms: _176  and  _178
REMARK   75  A    between atoms: _178  and  _179
REMARK   76  A    between atoms: _178  and  _181
REMARK   77  A    between atoms: _181  and  _182
REMARK   78  A    between atoms: _187  and  _188
REMARK   79  A    between atoms: _190  and  _192
REMARK   80  A    between atoms: _192  and  _193
REMARK   81  A    between atoms: _195  and  _197
REMARK   82  A    between atoms: _197  and  _198
REMARK   83  A    between atoms: _197  and  _200
REMARK   84  A    between atoms: _200  and  _201
REMARK   85  A    between atoms: _204  and  _206
REMARK   86  A    between atoms: _206  and  _207
REMARK   87  A    between atoms: _209  and  _211
REMARK   88  A    between atoms: _211  and  _212
REMARK   89  A    between atoms: _211  and  _214
REMARK   90  A    between atoms: _214  and  _215
REMARK   91  A    between atoms: _217  and  _219
REMARK   92  A    between atoms: _219  and  _220
REMARK   93  A    between atoms: _219  and  _222
REMARK   94  A    between atoms: _222  and  _223
REMARK   95  A    between atoms: _225  and  _227
REMARK   96  A    between atoms: _227  and  _228
REMARK   97  A    between atoms: _227  and  _230
REMARK   98  A    between atoms: _230  and  _231
REMARK   99  A    between atoms: _233  and  _235
REMARK  100  A    between atoms: _235  and  _236
REMARK  101  A    between atoms: _235  and  _238
REMARK  102  A    between atoms: _238  and  _239
REMARK  103  A    between atoms: _241  and  _243
REMARK  104  A    between atoms: _243  and  _244
REMARK  105  A    between atoms: _243  and  _246
REMARK  106  A    between atoms: _246  and  _247
REMARK  107  A    between atoms: _253  and  _255
REMARK  108  A    between atoms: _255  and  _256
REMARK  109  A    between atoms: _255  and  _258
REMARK  110  A    between atoms: _258  and  _259
REMARK  111  A    between atoms: _259  and  _260
REMARK  112  A    between atoms: _263  and  _265
REMARK  113  A    between atoms: _265  and  _266
REMARK  114  A    between atoms: _265  and  _268
REMARK  115  A    between atoms: _268  and  _269
REMARK  116  A    between atoms: _272  and  _274
REMARK  117  A    between atoms: _274  and  _275
REMARK  118  A    between atoms: _274  and  _277
REMARK  119  A    between atoms: _277  and  _278
REMARK  120  A    between atoms: _280  and  _282
REMARK  121  A    between atoms: _282  and  _283
REMARK  122  A    between atoms: _282  and  _285
REMARK  123  A    between atoms: _285  and  _286
REMARK  124  A    between atoms: _289  and  _291
REMARK  125  A    between atoms: _291  and  _292
REMARK  126  A    between atoms: _291  and  _294
REMARK  127  A    between atoms: _294  and  _295
REMARK  128  A    between atoms: _298  and  _300
REMARK  129  A    between atoms: _300  and  _301
REMARK  130  A    between atoms: _303  and  _305
REMARK  131  A    between atoms: _305  and  _306
REMARK  132  A    between atoms: _305  and  _308
REMARK  133  A    between atoms: _308  and  _309
REMARK  134  A    between atoms: _312  and  _314
REMARK  135  A    between atoms: _314  and  _315
REMARK  136  A    between atoms: _314  and  _317
REMARK  137  A    between atoms: _317  and  _318
REMARK  138  A    between atoms: _321  and  _323
REMARK  139  A    between atoms: _323  and  _324
REMARK  140  A    between atoms: _323  and  _326
REMARK  141  A    between atoms: _326  and  _327
REMARK  142  A    between atoms: _330  and  _332
REMARK  143  A    between atoms: _332  and  _333
REMARK  144  A    between atoms: _336  and  _338
REMARK  145  A    between atoms: _338  and  _339
REMARK  146  A    between atoms: _338  and  _341
REMARK  147  A    between atoms: _341  and  _342
REMARK  148  A    between atoms: _348  and  _350
REMARK  149  A    between atoms: _350  and  _351
REMARK  150  A    between atoms: _350  and  _353
REMARK  151  A    between atoms: _353  and  _354
REMARK  152  A    between atoms: _356  and  _358
REMARK  153  A    between atoms: _358  and  _359
REMARK  154  A    between atoms: _358  and  _361
REMARK  155  A    between atoms: _361  and  _362
REMARK  156  A    between atoms: _365  and  _367
REMARK  157  A    between atoms: _367  and  _368
REMARK  158  A    between atoms: _367  and  _370
REMARK  159  A    between atoms: _370  and  _371
REMARK  160  A    between atoms: _374  and  _376
REMARK  161  A    between atoms: _376  and  _377
REMARK  162  A    between atoms: _376  and  _379
REMARK  163  A    between atoms: _379  and  _380
REMARK  164  A    between atoms: _385  and  _387
REMARK  165  A    between atoms: _387  and  _388
REMARK  166  A    between atoms: _387  and  _390
REMARK  167  A    between atoms: _390  and  _391
REMARK  168  A    between atoms: _394  and  _396
REMARK  169  A    between atoms: _396  and  _397
REMARK  170  A    between atoms: _396  and  _399
REMARK  171  A    between atoms: _402  and  _404
REMARK  172  A    between atoms: _404  and  _405
REMARK  173  A    between atoms: _404  and  _407
REMARK  174  A    between atoms: _407  and  _408
REMARK  175  A    between atoms: _408  and  _409
REMARK  176  A    between atoms: _414  and  _416
REMARK  177  A    between atoms: _416  and  _417
REMARK  178  A    between atoms: _416  and  _419
REMARK  179  A    between atoms: _419  and  _420
REMARK  180  A    between atoms: _420  and  _421
REMARK  181  A    between atoms: _426  and  _428
REMARK  182  A    between atoms: _428  and  _429
REMARK  183  A    between atoms: _428  and  _431
REMARK  184  A    between atoms: _431  and  _432
REMARK  185  A    between atoms: _438  and  _440
REMARK  186  A    between atoms: _440  and  _441
REMARK  187  A    between atoms: _440  and  _443
REMARK  188  A    between atoms: _443  and  _444
REMARK  189  A    between atoms: _454  and  _456
REMARK  190  A    between atoms: _456  and  _457
REMARK  191  A    between atoms: _459  and  _461
REMARK  192  A    between atoms: _461  and  _462
REMARK  193  A    between atoms: _461  and  _464
REMARK  194  A    between atoms: _464  and  _465
REMARK  195  A    between atoms: _468  and  _470
REMARK  196  A    between atoms: _470  and  _471
REMARK  197  A    between atoms: _474  and  _476
REMARK  198  A    between atoms: _476  and  _477
REMARK  199  A    between atoms: _476  and  _479
REMARK  200  A    between atoms: _479  and  _480
REMARK  201  A    between atoms: _483  and  _485
REMARK  202  A    between atoms: _485  and  _486
REMARK  203  A    between atoms: _485  and  _488
REMARK  204  A    between atoms: _488  and  _489
REMARK  205  A    between atoms: _492  and  _494
REMARK  206  A    between atoms: _494  and  _495
REMARK  207  A    between atoms: _497  and  _499
REMARK  208  A    between atoms: _499  and  _500
REMARK  209  A    between atoms: _499  and  _502
REMARK  210  A    between atoms: _502  and  _503
REMARK  211  A    between atoms: _506  and  _508
REMARK  212  A    between atoms: _508  and  _509
REMARK  213  A    between atoms: _508  and  _511
REMARK  214  A    between atoms: _511  and  _512
REMARK  215  A    between atoms: _515  and  _517
REMARK  216  A    between atoms: _517  and  _518
REMARK  217  A    between atoms: _517  and  _520
REMARK  218  A    between atoms: _520  and  _521
REMARK  219  A    between atoms: _524  and  _526
REMARK  220  A    between atoms: _526  and  _527
REMARK  221  A    between atoms: _526  and  _529
REMARK  222  A    between atoms: _529  and  _530
REMARK  223  A    between atoms: _533  and  _535
REMARK  224  A    between atoms: _535  and  _536
REMARK  225  A    between atoms: _535  and  _538
REMARK  226  A    between atoms: _538  and  _539
REMARK  227  A    between atoms: _544  and  _545
REMARK  228  A    between atoms: _547  and  _549
REMARK  229  A    between atoms: _549  and  _550
REMARK  230  A    between atoms: _549  and  _552
REMARK  231  A    between atoms: _555  and  _557
REMARK  232  A    between atoms: _557  and  _558
REMARK  233  A    between atoms: _560  and  _562
REMARK  234  A    between atoms: _562  and  _563
REMARK  235  A    between atoms: _562  and  _565
REMARK  236  A    between atoms: _565  and  _566
REMARK  237  A    between atoms: _572  and  _574
REMARK  238  A    between atoms: _574  and  _575
REMARK  239  A    between atoms: _574  and  _577
REMARK  240  A    between atoms: _577  and  _578
REMARK  241  A    between atoms: _584  and  _586
REMARK  242  A    between atoms: _586  and  _587
REMARK  243  A    between atoms: _589  and  _591
REMARK  244  A    between atoms: _591  and  _592
REMARK  245  A    between atoms: _594  and  _596
REMARK  246  A    between atoms: _596  and  _597
REMARK  247  A    between atoms: _596  and  _599
REMARK  248  A    between atoms: _599  and  _600
REMARK  249  A    between atoms: _600  and  _601
REMARK  250  A    between atoms: _606  and  _608
REMARK  251  A    between atoms: _608  and  _609
REMARK  252  A    between atoms: _608  and  _611
REMARK  253  A    between atoms: _611  and  _612
REMARK  254  A    between atoms: _614  and  _616
REMARK  255  A    between atoms: _616  and  _617
REMARK  256  A    between atoms: _619  and  _621
REMARK  257  A    between atoms: _621  and  _622
REMARK  258  A    between atoms: _621  and  _624
REMARK  259  A    between atoms: _624  and  _625
REMARK  260  A    between atoms: _628  and  _630
REMARK  261  A    between atoms: _630  and  _631
REMARK  262  A    between atoms: _633  and  _635
REMARK  263  A    between atoms: _635  and  _636
REMARK  264  A    between atoms: _635  and  _638
REMARK  265  A    between atoms: _638  and  _639
REMARK  266  A    between atoms: _642  and  _644
REMARK  267  A    between atoms: _644  and  _645
REMARK  268  A    between atoms: _644  and  _647
REMARK  269  A    between atoms: _647  and  _648
REMARK  270  A    between atoms: _653  and  _655
REMARK  271  A    between atoms: _655  and  _656
REMARK  272  A    between atoms: _655  and  _658
REMARK  273  A    between atoms: _658  and  _659
REMARK  274  A    between atoms: _662  and  _664
REMARK  275  A    between atoms: _664  and  _665
REMARK  276  A    between atoms: _664  and  _667
REMARK  277  A    between atoms: _667  and  _668
REMARK  278  A    between atoms: _674  and  _676
REMARK  279  A    between atoms: _676  and  _677
REMARK  280  A    between atoms: _679  and  _681
REMARK  281  A    between atoms: _681  and  _682
REMARK  282  A    between atoms: _681  and  _684
REMARK  283  A    between atoms: _684  and  _685
REMARK                            x       y       z     vdW  Elec       q    Type
REMARK                         _______ _______ _______ _____ _____    ______ ____
ROOT
ATOM      1  O   HOH     1      -3.482  41.133  16.260  0.00  0.00    +0.000 OA
ENDROOT
TORSDOF 0
REMARK  Name = ../refined-set-2016/5er2/5er2_pocket.pdb
REMARK  283 active torsions:
REMARK  status: ('A' for Active; 'I' for Inactive)
REMARK    1  A    between atoms: _1  and  _3
REMARK    2  A    between atoms: _3  and  _4
REMARK    3  A    between atoms: _3  and  _6
REMARK    4  A    between atoms: _6  and  _7
REMARK    5  A    between atoms: _10  and  _12
REMARK    6  A    between atoms: _12  and  _13
REMARK    7  A    between atoms: _12  and  _15
REMARK    8  A    between atoms: _15  and  _16
REMARK    9  A    between atoms: _19  and  _21
REMARK   10  A    between atoms: _21  and  _22
REMARK   11  A    between atoms: _21  and  _24
REMARK   12  A    between atoms: _24  and  _25
REMARK   13  A    between atoms: _28  and  _30
REMARK   14  A    between atoms: _30  and  _31
REMARK   15  A    between atoms: _30  and  _33
REMARK   16  A    between atoms: _33  and  _34
REMARK   17  A    between atoms: _37  and  _39
REMARK   18  A    between atoms: _39  and  _40
REMARK   19  A    between atoms: _39  and  _42
REMARK   20  A    between atoms: _42  and  _43
REMARK   21  A    between atoms: _46  and  _48
REMARK   22  A    between atoms: _48  and  _49
REMARK   23  A    between atoms: _52  and  _54
REMARK   24  A    between atoms: _54  and  _55
REMARK   25  A    between atoms: _54  and  _57
REMARK   26  A    between atoms: _57  and  _58
REMARK   27  A    between atoms: _63  and  _64
REMARK   28  A    between atoms: _66  and  _68
REMARK   29  A    between atoms: _68  and  _69
REMARK   30  A    between atoms: _68  and  _71
REMARK   31  A    between atoms: _71  and  _72
REMARK   32  A    between atoms: _75  and  _77
REMARK   33  A    between atoms: _77  and  _78
REMARK   34  A    between atoms: _77  and  _80
REMARK   35  A    between atoms: _80  and  _81
REMARK   36  A    between atoms: _87  and  _89
REMARK   37  A    between atoms: _89  and  _90
REMARK   38  A    between atoms: _89  and  _92
REMARK   39  A    between atoms: _92  and  _93
REMARK   40  A    between atoms: _96  and  _98
REMARK   41  A    between atoms: _98  and  _99
REMARK   42  A    between atoms: _98  and  _101
REMARK   43  A    between atoms: _101  and  _102
REMARK   44  A    between atoms: _105  and  _107
REMARK   45  A    between atoms: _107  and  _108
REMARK   46  A    between atoms: _110  and  _112
REMARK   47  A    between atoms: _112  and  _113
REMARK   48  A    between atoms: _112  and  _115
REMARK   49  A    between atoms: _115  and  _116
REMARK   50  A    between atoms: _118  and  _120
REMARK   51  A    between atoms: _120  and  _121
REMARK   52  A    between atoms: _120  and  _123
REMARK   53  A    between atoms: _123  and  _124
REMARK   54  A    between atoms: _126  and  _128
REMARK   55  A    between atoms: _128  and  _129
REMARK   56  A    between atoms: _128  and  _131
REMARK   57  A    between atoms: _131  and  _132
REMARK   58  A    between atoms: _135  and  _137
REMARK   59  A    between atoms: _137  and  _138
REMARK   60  A    between atoms: _137  and  _140
REMARK   61  A    between atoms: _140  and  _141
REMARK   62  A    between atoms: _151  and  _153
REMARK   63  A    between atoms: _153  and  _154
REMARK   64  A    between atoms: _153  and  _156
REMARK   65  A    between atoms: _156  and  _157
REMARK   66  A    between atoms: _159  and  _161
REMARK   67  A    between atoms: _161  and  _162
REMARK   68  A    between atoms: _161  and  _164
REMARK   69  A    between atoms: _164  and  _165
REMARK   70  A    between atoms: _168  and  _170
REMARK   71  A    between atoms: _170  and  _171
REMARK   72  A    between atoms: _170  and  _173
REMARK   73  A    between atoms: _173  and  _174
REMARK   74  A    between atoms: _176  and  _178
REMARK   75  A    between atoms: _178  and  _179
REMARK   76  A    between atoms: _178  and  _181
REMARK   77  A    between atoms: _181  and  _182
REMARK   78  A    between atoms: _187  and  _188
REMARK   79  A    between atoms: _190  and  _192
REMARK   80  A    between atoms: _192  and  _193
REMARK   81  A    between atoms: _195  and  _197
REMARK   82  A    between atoms: _197  and  _198
REMARK   83  A    between atoms: _197  and  _200
REMARK   84  A    between atoms: _200  and  _201
REMARK   85  A    between atoms: _204  and  _206
REMARK   86  A    between atoms: _206  and  _207
REMARK   87  A    between atoms: _209  and  _211
REMARK   88  A    between atoms: _211  and  _212
REMARK   89  A    between atoms: _211  and  _214
REMARK   90  A    between atoms: _214  and  _215
REMARK   91  A    between atoms: _217  and  _219
REMARK   92  A    between atoms: _219  and  _220
REMARK   93  A    between atoms: _219  and  _222
REMARK   94  A    between atoms: _222  and  _223
REMARK   95  A    between atoms: _225  and  _227
REMARK   96  A    between atoms: _227  and  _228
REMARK   97  A    between atoms: _227  and  _230
REMARK   98  A    between atoms: _230  and  _231
REMARK   99  A    between atoms: _233  and  _235
REMARK  100  A    between atoms: _235  and  _236
REMARK  101  A    between atoms: _235  and  _238
REMARK  102  A    between atoms: _238  and  _239
REMARK  103  A    between atoms: _241  and  _243
REMARK  104  A    between atoms: _243  and  _244
REMARK  105  A    between atoms: _243  and  _246
REMARK  106  A    between atoms: _246  and  _247
REMARK  107  A    between atoms: _253  and  _255
REMARK  108  A    between atoms: _255  and  _256
REMARK  109  A    between atoms: _255  and  _258
REMARK  110  A    between atoms: _258  and  _259
REMARK  111  A    between atoms: _259  and  _260
REMARK  112  A    between atoms: _263  and  _265
REMARK  113  A    between atoms: _265  and  _266
REMARK  114  A    between atoms: _265  and  _268
REMARK  115  A    between atoms: _268  and  _269
REMARK  116  A    between atoms: _272  and  _274
REMARK  117  A    between atoms: _274  and  _275
REMARK  118  A    between atoms: _274  and  _277
REMARK  119  A    between atoms: _277  and  _278
REMARK  120  A    between atoms: _280  and  _282
REMARK  121  A    between atoms: _282  and  _283
REMARK  122  A    between atoms: _282  and  _285
REMARK  123  A    between atoms: _285  and  _286
REMARK  124  A    between atoms: _289  and  _291
REMARK  125  A    between atoms: _291  and  _292
REMARK  126  A    between atoms: _291  and  _294
REMARK  127  A    between atoms: _294  and  _295
REMARK  128  A    between atoms: _298  and  _300
REMARK  129  A    between atoms: _300  and  _301
REMARK  130  A    between atoms: _303  and  _305
REMARK  131  A    between atoms: _305  and  _306
REMARK  132  A    between atoms: _305  and  _308
REMARK  133  A    between atoms: _308  and  _309
REMARK  134  A    between atoms: _312  and  _314
REMARK  135  A    between atoms: _314  and  _315
REMARK  136  A    between atoms: _314  and  _317
REMARK  137  A    between atoms: _317  and  _318
REMARK  138  A    between atoms: _321  and  _323
REMARK  139  A    between atoms: _323  and  _324
REMARK  140  A    between atoms: _323  and  _326
REMARK  141  A    between atoms: _326  and  _327
REMARK  142  A    between atoms: _330  and  _332
REMARK  143  A    between atoms: _332  and  _333
REMARK  144  A    between atoms: _336  and  _338
REMARK  145  A    between atoms: _338  and  _339
REMARK  146  A    between atoms: _338  and  _341
REMARK  147  A    between atoms: _341  and  _342
REMARK  148  A    between atoms: _348  and  _350
REMARK  149  A    between atoms: _350  and  _351
REMARK  150  A    between atoms: _350  and  _353
REMARK  151  A    between atoms: _353  and  _354
REMARK  152  A    between atoms: _356  and  _358
REMARK  153  A    between atoms: _358  and  _359
REMARK  154  A    between atoms: _358  and  _361
REMARK  155  A    between atoms: _361  and  _362
REMARK  156  A    between atoms: _365  and  _367
REMARK  157  A    between atoms: _367  and  _368
REMARK  158  A    between atoms: _367  and  _370
REMARK  159  A    between atoms: _370  and  _371
REMARK  160  A    between atoms: _374  and  _376
REMARK  161  A    between atoms: _376  and  _377
REMARK  162  A    between atoms: _376  and  _379
REMARK  163  A    between atoms: _379  and  _380
REMARK  164  A    between atoms: _385  and  _387
REMARK  165  A    between atoms: _387  and  _388
REMARK  166  A    between atoms: _387  and  _390
REMARK  167  A    between atoms: _390  and  _391
REMARK  168  A    between atoms: _394  and  _396
REMARK  169  A    between atoms: _396  and  _397
REMARK  170  A    between atoms: _396  and  _399
REMARK  171  A    between atoms: _402  and  _404
REMARK  172  A    between atoms: _404  and  _405
REMARK  173  A    between atoms: _404  and  _407
REMARK  174  A    between atoms: _407  and  _408
REMARK  175  A    between atoms: _408  and  _409
REMARK  176  A    between atoms: _414  and  _416
REMARK  177  A    between atoms: _416  and  _417
REMARK  178  A    between atoms: _416  and  _419
REMARK  179  A    between atoms: _419  and  _420
REMARK  180  A    between atoms: _420  and  _421
REMARK  181  A    between atoms: _426  and  _428
REMARK  182  A    between atoms: _428  and  _429
REMARK  183  A    between atoms: _428  and  _431
REMARK  184  A    between atoms: _431  and  _432
REMARK  185  A    between atoms: _438  and  _440
REMARK  186  A    between atoms: _440  and  _441
REMARK  187  A    between atoms: _440  and  _443
REMARK  188  A    between atoms: _443  and  _444
REMARK  189  A    between atoms: _454  and  _456
REMARK  190  A    between atoms: _456  and  _457
REMARK  191  A    between atoms: _459  and  _461
REMARK  192  A    between atoms: _461  and  _462
REMARK  193  A    between atoms: _461  and  _464
REMARK  194  A    between atoms: _464  and  _465
REMARK  195  A    between atoms: _468  and  _470
REMARK  196  A    between atoms: _470  and  _471
REMARK  197  A    between atoms: _474  and  _476
REMARK  198  A    between atoms: _476  and  _477
REMARK  199  A    between atoms: _476  and  _479
REMARK  200  A    between atoms: _479  and  _480
REMARK  201  A    between atoms: _483  and  _485
REMARK  202  A    between atoms: _485  and  _486
REMARK  203  A    between atoms: _485  and  _488
REMARK  204  A    between atoms: _488  and  _489
REMARK  205  A    between atoms: _492  and  _494
REMARK  206  A    between atoms: _494  and  _495
REMARK  207  A    between atoms: _497  and  _499
REMARK  208  A    between atoms: _499  and  _500
REMARK  209  A    between atoms: _499  and  _502
REMARK  210  A    between atoms: _502  and  _503
REMARK  211  A    between atoms: _506  and  _508
REMARK  212  A    between atoms: _508  and  _509
REMARK  213  A    between atoms: _508  and  _511
REMARK  214  A    between atoms: _511  and  _512
REMARK  215  A    between atoms: _515  and  _517
REMARK  216  A    between atoms: _517  and  _518
REMARK  217  A    between atoms: _517  and  _520
REMARK  218  A    between atoms: _520  and  _521
REMARK  219  A    between atoms: _524  and  _526
REMARK  220  A    between atoms: _526  and  _527
REMARK  221  A    between atoms: _526  and  _529
REMARK  222  A    between atoms: _529  and  _530
REMARK  223  A    between atoms: _533  and  _535
REMARK  224  A    between atoms: _535  and  _536
REMARK  225  A    between atoms: _535  and  _538
REMARK  226  A    between atoms: _538  and  _539
REMARK  227  A    between atoms: _544  and  _545
REMARK  228  A    between atoms: _547  and  _549
REMARK  229  A    between atoms: _549  and  _550
REMARK  230  A    between atoms: _549  and  _552
REMARK  231  A    between atoms: _555  and  _557
REMARK  232  A    between atoms: _557  and  _558
REMARK  233  A    between atoms: _560  and  _562
REMARK  234  A    between atoms: _562  and  _563
REMARK  235  A    between atoms: _562  and  _565
REMARK  236  A    between atoms: _565  and  _566
REMARK  237  A    between atoms: _572  and  _574
REMARK  238  A    between atoms: _574  and  _575
REMARK  239  A    between atoms: _574  and  _577
REMARK  240  A    between atoms: _577  and  _578
REMARK  241  A    between atoms: _584  and  _586
REMARK  242  A    between atoms: _586  and  _587
REMARK  243  A    between atoms: _589  and  _591
REMARK  244  A    between atoms: _591  and  _592
REMARK  245  A    between atoms: _594  and  _596
REMARK  246  A    between atoms: _596  and  _597
REMARK  247  A    between atoms: _596  and  _599
REMARK  248  A    between atoms: _599  and  _600
REMARK  249  A    between atoms: _600  and  _601
REMARK  250  A    between atoms: _606  and  _608
REMARK  251  A    between atoms: _608  and  _609
REMARK  252  A    between atoms: _608  and  _611
REMARK  253  A    between atoms: _611  and  _612
REMARK  254  A    between atoms: _614  and  _616
REMARK  255  A    between atoms: _616  and  _617
REMARK  256  A    between atoms: _619  and  _621
REMARK  257  A    between atoms: _621  and  _622
REMARK  258  A    between atoms: _621  and  _624
REMARK  259  A    between atoms: _624  and  _625
REMARK  260  A    between atoms: _628  and  _630
REMARK  261  A    between atoms: _630  and  _631
REMARK  262  A    between atoms: _633  and  _635
REMARK  263  A    between atoms: _635  and  _636
REMARK  264  A    between atoms: _635  and  _638
REMARK  265  A    between atoms: _638  and  _639
REMARK  266  A    between atoms: _642  and  _644
REMARK  267  A    between atoms: _644  and  _645
REMARK  268  A    between atoms: _644  and  _647
REMARK  269  A    between atoms: _647  and  _648
REMARK  270  A    between atoms: _653  and  _655
REMARK  271  A    between atoms: _655  and  _656
REMARK  272  A    between atoms: _655  and  _658
REMARK  273  A    between atoms: _658  and  _659
REMARK  274  A    between atoms: _662  and  _664
REMARK  275  A    between atoms: _664  and  _665
REMARK  276  A    between atoms: _664  and  _667
REMARK  277  A    between atoms: _667  and  _668
REMARK  278  A    between atoms: _674  and  _676
REMARK  279  A    between atoms: _676  and  _677
REMARK  280  A    between atoms: _679  and  _681
REMARK  281  A    between atoms: _681  and  _682
REMARK  282  A    between atoms: _681  and  _684
REMARK  283  A    between atoms: _684  and  _685
REMARK                            x       y       z     vdW  Elec       q    Type
REMARK                         _______ _______ _______ _____ _____    ______ ____
ROOT
ATOM      1  O   HOH     1       0.774  43.144   9.546  0.00  0.00    +0.000 OA
ENDROOT
TORSDOF 0
REMARK  Name = ../refined-set-2016/5er2/5er2_pocket.pdb
REMARK  283 active torsions:
REMARK  status: ('A' for Active; 'I' for Inactive)
REMARK    1  A    between atoms: _1  and  _3
REMARK    2  A    between atoms: _3  and  _4
REMARK    3  A    between atoms: _3  and  _6
REMARK    4  A    between atoms: _6  and  _7
REMARK    5  A    between atoms: _10  and  _12
REMARK    6  A    between atoms: _12  and  _13
REMARK    7  A    between atoms: _12  and  _15
REMARK    8  A    between atoms: _15  and  _16
REMARK    9  A    between atoms: _19  and  _21
REMARK   10  A    between atoms: _21  and  _22
REMARK   11  A    between atoms: _21  and  _24
REMARK   12  A    between atoms: _24  and  _25
REMARK   13  A    between atoms: _28  and  _30
REMARK   14  A    between atoms: _30  and  _31
REMARK   15  A    between atoms: _30  and  _33
REMARK   16  A    between atoms: _33  and  _34
REMARK   17  A    between atoms: _37  and  _39
REMARK   18  A    between atoms: _39  and  _40
REMARK   19  A    between atoms: _39  and  _42
REMARK   20  A    between atoms: _42  and  _43
REMARK   21  A    between atoms: _46  and  _48
REMARK   22  A    between atoms: _48  and  _49
REMARK   23  A    between atoms: _52  and  _54
REMARK   24  A    between atoms: _54  and  _55
REMARK   25  A    between atoms: _54  and  _57
REMARK   26  A    between atoms: _57  and  _58
REMARK   27  A    between atoms: _63  and  _64
REMARK   28  A    between atoms: _66  and  _68
REMARK   29  A    between atoms: _68  and  _69
REMARK   30  A    between atoms: _68  and  _71
REMARK   31  A    between atoms: _71  and  _72
REMARK   32  A    between atoms: _75  and  _77
REMARK   33  A    between atoms: _77  and  _78
REMARK   34  A    between atoms: _77  and  _80
REMARK   35  A    between atoms: _80  and  _81
REMARK   36  A    between atoms: _87  and  _89
REMARK   37  A    between atoms: _89  and  _90
REMARK   38  A    between atoms: _89  and  _92
REMARK   39  A    between atoms: _92  and  _93
REMARK   40  A    between atoms: _96  and  _98
REMARK   41  A    between atoms: _98  and  _99
REMARK   42  A    between atoms: _98  and  _101
REMARK   43  A    between atoms: _101  and  _102
REMARK   44  A    between atoms: _105  and  _107
REMARK   45  A    between atoms: _107  and  _108
REMARK   46  A    between atoms: _110  and  _112
REMARK   47  A    between atoms: _112  and  _113
REMARK   48  A    between atoms: _112  and  _115
REMARK   49  A    between atoms: _115  and  _116
REMARK   50  A    between atoms: _118  and  _120
REMARK   51  A    between atoms: _120  and  _121
REMARK   52  A    between atoms: _120  and  _123
REMARK   53  A    between atoms: _123  and  _124
REMARK   54  A    between atoms: _126  and  _128
REMARK   55  A    between atoms: _128  and  _129
REMARK   56  A    between atoms: _128  and  _131
REMARK   57  A    between atoms: _131  and  _132
REMARK   58  A    between atoms: _135  and  _137
REMARK   59  A    between atoms: _137  and  _138
REMARK   60  A    between atoms: _137  and  _140
REMARK   61  A    between atoms: _140  and  _141
REMARK   62  A    between atoms: _151  and  _153
REMARK   63  A    between atoms: _153  and  _154
REMARK   64  A    between atoms: _153  and  _156
REMARK   65  A    between atoms: _156  and  _157
REMARK   66  A    between atoms: _159  and  _161
REMARK   67  A    between atoms: _161  and  _162
REMARK   68  A    between atoms: _161  and  _164
REMARK   69  A    between atoms: _164  and  _165
REMARK   70  A    between atoms: _168  and  _170
REMARK   71  A    between atoms: _170  and  _171
REMARK   72  A    between atoms: _170  and  _173
REMARK   73  A    between atoms: _173  and  _174
REMARK   74  A    between atoms: _176  and  _178
REMARK   75  A    between atoms: _178  and  _179
REMARK   76  A    between atoms: _178  and  _181
REMARK   77  A    between atoms: _181  and  _182
REMARK   78  A    between atoms: _187  and  _188
REMARK   79  A    between atoms: _190  and  _192
REMARK   80  A    between atoms: _192  and  _193
REMARK   81  A    between atoms: _195  and  _197
REMARK   82  A    between atoms: _197  and  _198
REMARK   83  A    between atoms: _197  and  _200
REMARK   84  A    between atoms: _200  and  _201
REMARK   85  A    between atoms: _204  and  _206
REMARK   86  A    between atoms: _206  and  _207
REMARK   87  A    between atoms: _209  and  _211
REMARK   88  A    between atoms: _211  and  _212
REMARK   89  A    between atoms: _211  and  _214
REMARK   90  A    between atoms: _214  and  _215
REMARK   91  A    between atoms: _217  and  _219
REMARK   92  A    between atoms: _219  and  _220
REMARK   93  A    between atoms: _219  and  _222
REMARK   94  A    between atoms: _222  and  _223
REMARK   95  A    between atoms: _225  and  _227
REMARK   96  A    between atoms: _227  and  _228
REMARK   97  A    between atoms: _227  and  _230
REMARK   98  A    between atoms: _230  and  _231
REMARK   99  A    between atoms: _233  and  _235
REMARK  100  A    between atoms: _235  and  _236
REMARK  101  A    between atoms: _235  and  _238
REMARK  102  A    between atoms: _238  and  _239
REMARK  103  A    between atoms: _241  and  _243
REMARK  104  A    between atoms: _243  and  _244
REMARK  105  A    between atoms: _243  and  _246
REMARK  106  A    between atoms: _246  and  _247
REMARK  107  A    between atoms: _253  and  _255
REMARK  108  A    between atoms: _255  and  _256
REMARK  109  A    between atoms: _255  and  _258
REMARK  110  A    between atoms: _258  and  _259
REMARK  111  A    between atoms: _259  and  _260
REMARK  112  A    between atoms: _263  and  _265
REMARK  113  A    between atoms: _265  and  _266
REMARK  114  A    between atoms: _265  and  _268
REMARK  115  A    between atoms: _268  and  _269
REMARK  116  A    between atoms: _272  and  _274
REMARK  117  A    between atoms: _274  and  _275
REMARK  118  A    between atoms: _274  and  _277
REMARK  119  A    between atoms: _277  and  _278
REMARK  120  A    between atoms: _280  and  _282
REMARK  121  A    between atoms: _282  and  _283
REMARK  122  A    between atoms: _282  and  _285
REMARK  123  A    between atoms: _285  and  _286
REMARK  124  A    between atoms: _289  and  _291
REMARK  125  A    between atoms: _291  and  _292
REMARK  126  A    between atoms: _291  and  _294
REMARK  127  A    between atoms: _294  and  _295
REMARK  128  A    between atoms: _298  and  _300
REMARK  129  A    between atoms: _300  and  _301
REMARK  130  A    between atoms: _303  and  _305
REMARK  131  A    between atoms: _305  and  _306
REMARK  132  A    between atoms: _305  and  _308
REMARK  133  A    between atoms: _308  and  _309
REMARK  134  A    between atoms: _312  and  _314
REMARK  135  A    between atoms: _314  and  _315
REMARK  136  A    between atoms: _314  and  _317
REMARK  137  A    between atoms: _317  and  _318
REMARK  138  A    between atoms: _321  and  _323
REMARK  139  A    between atoms: _323  and  _324
REMARK  140  A    between atoms: _323  and  _326
REMARK  141  A    between atoms: _326  and  _327
REMARK  142  A    between atoms: _330  and  _332
REMARK  143  A    between atoms: _332  and  _333
REMARK  144  A    between atoms: _336  and  _338
REMARK  145  A    between atoms: _338  and  _339
REMARK  146  A    between atoms: _338  and  _341
REMARK  147  A    between atoms: _341  and  _342
REMARK  148  A    between atoms: _348  and  _350
REMARK  149  A    between atoms: _350  and  _351
REMARK  150  A    between atoms: _350  and  _353
REMARK  151  A    between atoms: _353  and  _354
REMARK  152  A    between atoms: _356  and  _358
REMARK  153  A    between atoms: _358  and  _359
REMARK  154  A    between atoms: _358  and  _361
REMARK  155  A    between atoms: _361  and  _362
REMARK  156  A    between atoms: _365  and  _367
REMARK  157  A    between atoms: _367  and  _368
REMARK  158  A    between atoms: _367  and  _370
REMARK  159  A    between atoms: _370  and  _371
REMARK  160  A    between atoms: _374  and  _376
REMARK  161  A    between atoms: _376  and  _377
REMARK  162  A    between atoms: _376  and  _379
REMARK  163  A    between atoms: _379  and  _380
REMARK  164  A    between atoms: _385  and  _387
REMARK  165  A    between atoms: _387  and  _388
REMARK  166  A    between atoms: _387  and  _390
REMARK  167  A    between atoms: _390  and  _391
REMARK  168  A    between atoms: _394  and  _396
REMARK  169  A    between atoms: _396  and  _397
REMARK  170  A    between atoms: _396  and  _399
REMARK  171  A    between atoms: _402  and  _404
REMARK  172  A    between atoms: _404  and  _405
REMARK  173  A    between atoms: _404  and  _407
REMARK  174  A    between atoms: _407  and  _408
REMARK  175  A    between atoms: _408  and  _409
REMARK  176  A    between atoms: _414  and  _416
REMARK  177  A    between atoms: _416  and  _417
REMARK  178  A    between atoms: _416  and  _419
REMARK  179  A    between atoms: _419  and  _420
REMARK  180  A    between atoms: _420  and  _421
REMARK  181  A    between atoms: _426  and  _428
REMARK  182  A    between atoms: _428  and  _429
REMARK  183  A    between atoms: _428  and  _431
REMARK  184  A    between atoms: _431  and  _432
REMARK  185  A    between atoms: _438  and  _440
REMARK  186  A    between atoms: _440  and  _441
REMARK  187  A    between atoms: _440  and  _443
REMARK  188  A    between atoms: _443  and  _444
REMARK  189  A    between atoms: _454  and  _456
REMARK  190  A    between atoms: _456  and  _457
REMARK  191  A    between atoms: _459  and  _461
REMARK  192  A    between atoms: _461  and  _462
REMARK  193  A    between atoms: _461  and  _464
REMARK  194  A    between atoms: _464  and  _465
REMARK  195  A    between atoms: _468  and  _470
REMARK  196  A    between atoms: _470  and  _471
REMARK  197  A    between atoms: _474  and  _476
REMARK  198  A    between atoms: _476  and  _477
REMARK  199  A    between atoms: _476  and  _479
REMARK  200  A    between atoms: _479  and  _480
REMARK  201  A    between atoms: _483  and  _485
REMARK  202  A    between atoms: _485  and  _486
REMARK  203  A    between atoms: _485  and  _488
REMARK  204  A    between atoms: _488  and  _489
REMARK  205  A    between atoms: _492  and  _494
REMARK  206  A    between atoms: _494  and  _495
REMARK  207  A    between atoms: _497  and  _499
REMARK  208  A    between atoms: _499  and  _500
REMARK  209  A    between atoms: _499  and  _502
REMARK  210  A    between atoms: _502  and  _503
REMARK  211  A    between atoms: _506  and  _508
REMARK  212  A    between atoms: _508  and  _509
REMARK  213  A    between atoms: _508  and  _511
REMARK  214  A    between atoms: _511  and  _512
REMARK  215  A    between atoms: _515  and  _517
REMARK  216  A    between atoms: _517  and  _518
REMARK  217  A    between atoms: _517  and  _520
REMARK  218  A    between atoms: _520  and  _521
REMARK  219  A    between atoms: _524  and  _526
REMARK  220  A    between atoms: _526  and  _527
REMARK  221  A    between atoms: _526  and  _529
REMARK  222  A    between atoms: _529  and  _530
REMARK  223  A    between atoms: _533  and  _535
REMARK  224  A    between atoms: _535  and  _536
REMARK  225  A    between atoms: _535  and  _538
REMARK  226  A    between atoms: _538  and  _539
REMARK  227  A    between atoms: _544  and  _545
REMARK  228  A    between atoms: _547  and  _549
REMARK  229  A    between atoms: _549  and  _550
REMARK  230  A    between atoms: _549  and  _552
REMARK  231  A    between atoms: _555  and  _557
REMARK  232  A    between atoms: _557  and  _558
REMARK  233  A    between atoms: _560  and  _562
REMARK  234  A    between atoms: _562  and  _563
REMARK  235  A    between atoms: _562  and  _565
REMARK  236  A    between atoms: _565  and  _566
REMARK  237  A    between atoms: _572  and  _574
REMARK  238  A    between atoms: _574  and  _575
REMARK  239  A    between atoms: _574  and  _577
REMARK  240  A    between atoms: _577  and  _578
REMARK  241  A    between atoms: _584  and  _586
REMARK  242  A    between atoms: _586  and  _587
REMARK  243  A    between atoms: _589  and  _591
REMARK  244  A    between atoms: _591  and  _592
REMARK  245  A    between atoms: _594  and  _596
REMARK  246  A    between atoms: _596  and  _597
REMARK  247  A    between atoms: _596  and  _599
REMARK  248  A    between atoms: _599  and  _600
REMARK  249  A    between atoms: _600  and  _601
REMARK  250  A    between atoms: _606  and  _608
REMARK  251  A    between atoms: _608  and  _609
REMARK  252  A    between atoms: _608  and  _611
REMARK  253  A    between atoms: _611  and  _612
REMARK  254  A    between atoms: _614  and  _616
REMARK  255  A    between atoms: _616  and  _617
REMARK  256  A    between atoms: _619  and  _621
REMARK  257  A    between atoms: _621  and  _622
REMARK  258  A    between atoms: _621  and  _624
REMARK  259  A    between atoms: _624  and  _625
REMARK  260  A    between atoms: _628  and  _630
REMARK  261  A    between atoms: _630  and  _631
REMARK  262  A    between atoms: _633  and  _635
REMARK  263  A    between atoms: _635  and  _636
REMARK  264  A    between atoms: _635  and  _638
REMARK  265  A    between atoms: _638  and  _639
REMARK  266  A    between atoms: _642  and  _644
REMARK  267  A    between atoms: _644  and  _645
REMARK  268  A    between atoms: _644  and  _647
REMARK  269  A    between atoms: _647  and  _648
REMARK  270  A    between atoms: _653  and  _655
REMARK  271  A    between atoms: _655  and  _656
REMARK  272  A    between atoms: _655  and  _658
REMARK  273  A    between atoms: _658  and  _659
REMARK  274  A    between atoms: _662  and  _664
REMARK  275  A    between atoms: _664  and  _665
REMARK  276  A    between atoms: _664  and  _667
REMARK  277  A    between atoms: _667  and  _668
REMARK  278  A    between atoms: _674  and  _676
REMARK  279  A    between atoms: _676  and  _677
REMARK  280  A    between atoms: _679  and  _681
REMARK  281  A    between atoms: _681  and  _682
REMARK  282  A    between atoms: _681  and  _684
REMARK  283  A    between atoms: _684  and  _685
REMARK                            x       y       z     vdW  Elec       q    Type
REMARK                         _______ _______ _______ _____ _____    ______ ____
ROOT
ATOM      1  O   HOH     1       3.233  46.617  12.649  0.00  0.00    +0.000 OA
ENDROOT
TORSDOF 0
