REMARK  Name = ../refined-set-2016/3m1k/3m1k_pocket.pdb
REMARK  136 active torsions:
REMARK  status: ('A' for Active; 'I' for Inactive)
REMARK    1  A    between atoms: _1  and  _3
REMARK    2  A    between atoms: _3  and  _4
REMARK    3  A    between atoms: _3  and  _6
REMARK    4  A    between atoms: _6  and  _7
REMARK    5  A    between atoms: _17  and  _19
REMARK    6  A    between atoms: _19  and  _20
REMARK    7  A    between atoms: _19  and  _22
REMARK    8  A    between atoms: _22  and  _23
REMARK    9  A    between atoms: _28  and  _29
REMARK   10  A    between atoms: _31  and  _33
REMARK   11  A    between atoms: _33  and  _34
REMARK   12  A    between atoms: _33  and  _36
REMARK   13  A    between atoms: _36  and  _37
REMARK   14  A    between atoms: _39  and  _41
REMARK   15  A    between atoms: _41  and  _42
REMARK   16  A    between atoms: _41  and  _44
REMARK   17  A    between atoms: _44  and  _45
REMARK   18  A    between atoms: _50  and  _52
REMARK   19  A    between atoms: _52  and  _53
REMARK   20  A    between atoms: _52  and  _55
REMARK   21  A    between atoms: _55  and  _56
REMARK   22  A    between atoms: _61  and  _63
REMARK   23  A    between atoms: _63  and  _64
REMARK   24  A    between atoms: _67  and  _69
REMARK   25  A    between atoms: _69  and  _70
REMARK   26  A    between atoms: _69  and  _72
REMARK   27  A    between atoms: _72  and  _73
REMARK   28  A    between atoms: _78  and  _80
REMARK   29  A    between atoms: _80  and  _81
REMARK   30  A    between atoms: _80  and  _83
REMARK   31  A    between atoms: _83  and  _84
REMARK   32  A    between atoms: _87  and  _89
REMARK   33  A    between atoms: _89  and  _90
REMARK   34  A    between atoms: _89  and  _92
REMARK   35  A    between atoms: _92  and  _93
REMARK   36  A    between atoms: _93  and  _94
REMARK   37  A    between atoms: _99  and  _101
REMARK   38  A    between atoms: _112  and  _115
REMARK   39  A    between atoms: _115  and  _116
REMARK   40  A    between atoms: _124  and  _125
REMARK   41  A    between atoms: _133  and  _135
REMARK   42  A    between atoms: _135  and  _136
REMARK   43  A    between atoms: _135  and  _138
REMARK   44  A    between atoms: _138  and  _139
REMARK   45  A    between atoms: _139  and  _140
REMARK   46  A    between atoms: _143  and  _145
REMARK   47  A    between atoms: _145  and  _146
REMARK   48  A    between atoms: _145  and  _148
REMARK   49  A    between atoms: _148  and  _149
REMARK   50  A    between atoms: _154  and  _156
REMARK   51  A    between atoms: _156  and  _157
REMARK   52  A    between atoms: _156  and  _159
REMARK   53  A    between atoms: _159  and  _160
REMARK   54  A    between atoms: _160  and  _161
REMARK   55  A    between atoms: _164  and  _166
REMARK   56  A    between atoms: _166  and  _167
REMARK   57  A    between atoms: _166  and  _169
REMARK   58  A    between atoms: _169  and  _170
REMARK   59  A    between atoms: _173  and  _175
REMARK   60  A    between atoms: _175  and  _176
REMARK   61  A    between atoms: _175  and  _178
REMARK   62  A    between atoms: _178  and  _179
REMARK   63  A    between atoms: _180  and  ZN_381
REMARK   64  A    between atoms: _184  and  _186
REMARK   65  A    between atoms: _186  and  _187
REMARK   66  A    between atoms: _186  and  _189
REMARK   67  A    between atoms: _189  and  _190
REMARK   68  A    between atoms: _193  and  _195
REMARK   69  A    between atoms: _195  and  _196
REMARK   70  A    between atoms: _195  and  _198
REMARK   71  A    between atoms: _201  and  _203
REMARK   72  A    between atoms: _203  and  _204
REMARK   73  A    between atoms: _203  and  _206
REMARK   74  A    between atoms: _206  and  _207
REMARK   75  A    between atoms: _212  and  _214
REMARK   76  A    between atoms: _214  and  _215
REMARK   77  A    between atoms: _214  and  _217
REMARK   78  A    between atoms: _217  and  _218
REMARK   79  A    between atoms: _224  and  _226
REMARK   80  A    between atoms: _226  and  _227
REMARK   81  A    between atoms: _226  and  _229
REMARK   82  A    between atoms: _232  and  _234
REMARK   83  A    between atoms: _234  and  _235
REMARK   84  A    between atoms: _234  and  _237
REMARK   85  A    between atoms: _237  and  _238
REMARK   86  A    between atoms: _241  and  _243
REMARK   87  A    between atoms: _243  and  _244
REMARK   88  A    between atoms: _247  and  _249
REMARK   89  A    between atoms: _249  and  _250
REMARK   90  A    between atoms: _249  and  _252
REMARK   91  A    between atoms: _255  and  _257
REMARK   92  A    between atoms: _257  and  _258
REMARK   93  A    between atoms: _257  and  _260
REMARK   94  A    between atoms: _260  and  _261
REMARK   95  A    between atoms: _263  and  _265
REMARK   96  A    between atoms: _265  and  _266
REMARK   97  A    between atoms: _265  and  _268
REMARK   98  A    between atoms: _268  and  _269
REMARK   99  A    between atoms: _272  and  _274
REMARK  100  A    between atoms: _274  and  _275
REMARK  101  A    between atoms: _274  and  _277
REMARK  102  A    between atoms: _277  and  _278
REMARK  103  A    between atoms: _281  and  _283
REMARK  104  A    between atoms: _283  and  _284
REMARK  105  A    between atoms: _283  and  _286
REMARK  106  A    between atoms: _286  and  _287
REMARK  107  A    between atoms: _291  and  _292
REMARK  108  A    between atoms: _298  and  _299
REMARK  109  A    between atoms: _304  and  _306
REMARK  110  A    between atoms: _306  and  _307
REMARK  111  A    between atoms: _306  and  _309
REMARK  112  A    between atoms: _309  and  _310
REMARK  113  A    between atoms: _313  and  _315
REMARK  114  A    between atoms: _315  and  _316
REMARK  115  A    between atoms: _315  and  _318
REMARK  116  A    between atoms: _318  and  _319
REMARK  117  A    between atoms: _322  and  _324
REMARK  118  A    between atoms: _324  and  _325
REMARK  119  A    between atoms: _324  and  _327
REMARK  120  A    between atoms: _329  and  _331
REMARK  121  A    between atoms: _331  and  _332
REMARK  122  A    between atoms: _331  and  _334
REMARK  123  A    between atoms: _337  and  _339
REMARK  124  A    between atoms: _339  and  _340
REMARK  125  A    between atoms: _339  and  _342
REMARK  126  A    between atoms: _342  and  _343
REMARK  127  A    between atoms: _353  and  _355
REMARK  128  A    between atoms: _355  and  _356
REMARK  129  A    between atoms: _355  and  _358
REMARK  130  A    between atoms: _358  and  _359
REMARK  131  A    between atoms: _364  and  _366
REMARK  132  A    between atoms: _366  and  _367
REMARK  133  A    between atoms: _366  and  _369
REMARK  134  A    between atoms: _369  and  _370
REMARK  135  A    between atoms: _370  and  _371
REMARK  136  A    between atoms: _371  and  _372
REMARK                            x       y       z     vdW  Elec       q    Type
REMARK                         _______ _______ _______ _____ _____    ______ ____
ROOT
ATOM      1  CG  TRP A   1      26.804   1.870  12.048  0.00  0.00    -0.002 A 
ATOM      2  CD2 TRP A   1      25.453   1.389  12.010  0.00  0.00    +0.013 A 
ATOM      3  CE3 TRP A   1      24.862   0.133  12.250  0.00  0.00    +0.001 A 
ATOM      4  CZ3 TRP A   1      23.493   0.031  12.114  0.00  0.00    +0.000 A 
ATOM      5  CH2 TRP A   1      22.707   1.133  11.753  0.00  0.00    +0.001 A 
ATOM      6  CZ2 TRP A   1      23.262   2.347  11.511  0.00  0.00    +0.017 A 
ATOM      7  CE2 TRP A   1      24.627   2.469  11.646  0.00  0.00    +0.056 A 
ATOM      8  NE1 TRP A   1      25.446   3.555  11.473  0.00  0.00    -0.352 N 
ATOM      9  HE1 TRP A   1      25.132   4.507  11.196  0.00  0.00    +0.166 HD
ATOM     10  CD1 TRP A   1      26.743   3.191  11.722  0.00  0.00    +0.068 A 
ENDROOT
BRANCH   1  11
ATOM     11  CB  TRP A   1      27.991   1.043  12.400  0.00  0.00    +0.053 C 
BRANCH  11  12
ATOM     12  CA  TRP A   1      28.658   0.322  11.245  0.00  0.00    +0.137 C 
BRANCH  12  13
ATOM     13  N   TRP A   1      29.286   1.258  10.343  0.00  0.00    -0.239 NA
ATOM     14  H   TRP A   1      29.040   2.267  10.396  0.00  0.00    +0.142 HD
ENDBRANCH  12  13
BRANCH  12  15
ATOM     15  C   TRP A   1      27.680  -0.545  10.483  0.00  0.00    +0.224 C 
ATOM     16  O   TRP A   1      27.137  -0.120   9.456  0.00  0.00    -0.287 OA
ENDBRANCH  12  15
ENDBRANCH  11  12
ENDBRANCH   1  11
TORSDOF 4
REMARK  Name = ../refined-set-2016/3m1k/3m1k_pocket.pdb
REMARK  136 active torsions:
REMARK  status: ('A' for Active; 'I' for Inactive)
REMARK    1  A    between atoms: _1  and  _3
REMARK    2  A    between atoms: _3  and  _4
REMARK    3  A    between atoms: _3  and  _6
REMARK    4  A    between atoms: _6  and  _7
REMARK    5  A    between atoms: _17  and  _19
REMARK    6  A    between atoms: _19  and  _20
REMARK    7  A    between atoms: _19  and  _22
REMARK    8  A    between atoms: _22  and  _23
REMARK    9  A    between atoms: _28  and  _29
REMARK   10  A    between atoms: _31  and  _33
REMARK   11  A    between atoms: _33  and  _34
REMARK   12  A    between atoms: _33  and  _36
REMARK   13  A    between atoms: _36  and  _37
REMARK   14  A    between atoms: _39  and  _41
REMARK   15  A    between atoms: _41  and  _42
REMARK   16  A    between atoms: _41  and  _44
REMARK   17  A    between atoms: _44  and  _45
REMARK   18  A    between atoms: _50  and  _52
REMARK   19  A    between atoms: _52  and  _53
REMARK   20  A    between atoms: _52  and  _55
REMARK   21  A    between atoms: _55  and  _56
REMARK   22  A    between atoms: _61  and  _63
REMARK   23  A    between atoms: _63  and  _64
REMARK   24  A    between atoms: _67  and  _69
REMARK   25  A    between atoms: _69  and  _70
REMARK   26  A    between atoms: _69  and  _72
REMARK   27  A    between atoms: _72  and  _73
REMARK   28  A    between atoms: _78  and  _80
REMARK   29  A    between atoms: _80  and  _81
REMARK   30  A    between atoms: _80  and  _83
REMARK   31  A    between atoms: _83  and  _84
REMARK   32  A    between atoms: _87  and  _89
REMARK   33  A    between atoms: _89  and  _90
REMARK   34  A    between atoms: _89  and  _92
REMARK   35  A    between atoms: _92  and  _93
REMARK   36  A    between atoms: _93  and  _94
REMARK   37  A    between atoms: _99  and  _101
REMARK   38  A    between atoms: _112  and  _115
REMARK   39  A    between atoms: _115  and  _116
REMARK   40  A    between atoms: _124  and  _125
REMARK   41  A    between atoms: _133  and  _135
REMARK   42  A    between atoms: _135  and  _136
REMARK   43  A    between atoms: _135  and  _138
REMARK   44  A    between atoms: _138  and  _139
REMARK   45  A    between atoms: _139  and  _140
REMARK   46  A    between atoms: _143  and  _145
REMARK   47  A    between atoms: _145  and  _146
REMARK   48  A    between atoms: _145  and  _148
REMARK   49  A    between atoms: _148  and  _149
REMARK   50  A    between atoms: _154  and  _156
REMARK   51  A    between atoms: _156  and  _157
REMARK   52  A    between atoms: _156  and  _159
REMARK   53  A    between atoms: _159  and  _160
REMARK   54  A    between atoms: _160  and  _161
REMARK   55  A    between atoms: _164  and  _166
REMARK   56  A    between atoms: _166  and  _167
REMARK   57  A    between atoms: _166  and  _169
REMARK   58  A    between atoms: _169  and  _170
REMARK   59  A    between atoms: _173  and  _175
REMARK   60  A    between atoms: _175  and  _176
REMARK   61  A    between atoms: _175  and  _178
REMARK   62  A    between atoms: _178  and  _179
REMARK   63  A    between atoms: _180  and  ZN_381
REMARK   64  A    between atoms: _184  and  _186
REMARK   65  A    between atoms: _186  and  _187
REMARK   66  A    between atoms: _186  and  _189
REMARK   67  A    between atoms: _189  and  _190
REMARK   68  A    between atoms: _193  and  _195
REMARK   69  A    between atoms: _195  and  _196
REMARK   70  A    between atoms: _195  and  _198
REMARK   71  A    between atoms: _201  and  _203
REMARK   72  A    between atoms: _203  and  _204
REMARK   73  A    between atoms: _203  and  _206
REMARK   74  A    between atoms: _206  and  _207
REMARK   75  A    between atoms: _212  and  _214
REMARK   76  A    between atoms: _214  and  _215
REMARK   77  A    between atoms: _214  and  _217
REMARK   78  A    between atoms: _217  and  _218
REMARK   79  A    between atoms: _224  and  _226
REMARK   80  A    between atoms: _226  and  _227
REMARK   81  A    between atoms: _226  and  _229
REMARK   82  A    between atoms: _232  and  _234
REMARK   83  A    between atoms: _234  and  _235
REMARK   84  A    between atoms: _234  and  _237
REMARK   85  A    between atoms: _237  and  _238
REMARK   86  A    between atoms: _241  and  _243
REMARK   87  A    between atoms: _243  and  _244
REMARK   88  A    between atoms: _247  and  _249
REMARK   89  A    between atoms: _249  and  _250
REMARK   90  A    between atoms: _249  and  _252
REMARK   91  A    between atoms: _255  and  _257
REMARK   92  A    between atoms: _257  and  _258
REMARK   93  A    between atoms: _257  and  _260
REMARK   94  A    between atoms: _260  and  _261
REMARK   95  A    between atoms: _263  and  _265
REMARK   96  A    between atoms: _265  and  _266
REMARK   97  A    between atoms: _265  and  _268
REMARK   98  A    between atoms: _268  and  _269
REMARK   99  A    between atoms: _272  and  _274
REMARK  100  A    between atoms: _274  and  _275
REMARK  101  A    between atoms: _274  and  _277
REMARK  102  A    between atoms: _277  and  _278
REMARK  103  A    between atoms: _281  and  _283
REMARK  104  A    between atoms: _283  and  _284
REMARK  105  A    between atoms: _283  and  _286
REMARK  106  A    between atoms: _286  and  _287
REMARK  107  A    between atoms: _291  and  _292
REMARK  108  A    between atoms: _298  and  _299
REMARK  109  A    between atoms: _304  and  _306
REMARK  110  A    between atoms: _306  and  _307
REMARK  111  A    between atoms: _306  and  _309
REMARK  112  A    between atoms: _309  and  _310
REMARK  113  A    between atoms: _313  and  _315
REMARK  114  A    between atoms: _315  and  _316
REMARK  115  A    between atoms: _315  and  _318
REMARK  116  A    between atoms: _318  and  _319
REMARK  117  A    between atoms: _322  and  _324
REMARK  118  A    between atoms: _324  and  _325
REMARK  119  A    between atoms: _324  and  _327
REMARK  120  A    between atoms: _329  and  _331
REMARK  121  A    between atoms: _331  and  _332
REMARK  122  A    between atoms: _331  and  _334
REMARK  123  A    between atoms: _337  and  _339
REMARK  124  A    between atoms: _339  and  _340
REMARK  125  A    between atoms: _339  and  _342
REMARK  126  A    between atoms: _342  and  _343
REMARK  127  A    between atoms: _353  and  _355
REMARK  128  A    between atoms: _355  and  _356
REMARK  129  A    between atoms: _355  and  _358
REMARK  130  A    between atoms: _358  and  _359
REMARK  131  A    between atoms: _364  and  _366
REMARK  132  A    between atoms: _366  and  _367
REMARK  133  A    between atoms: _366  and  _369
REMARK  134  A    between atoms: _369  and  _370
REMARK  135  A    between atoms: _370  and  _371
REMARK  136  A    between atoms: _371  and  _372
REMARK                            x       y       z     vdW  Elec       q    Type
REMARK                         _______ _______ _______ _____ _____    ______ ____
ROOT
ATOM      1  CG  TYR A   1      23.072  -5.292  11.818  0.00  0.00    -0.020 A 
ATOM      2  CD2 TYR A   1      22.684  -5.249  13.150  0.00  0.00    -0.001 A 
ATOM      3  CE2 TYR A   1      21.840  -4.265  13.631  0.00  0.00    +0.036 A 
ATOM      4  CZ  TYR A   1      21.368  -3.283  12.786  0.00  0.00    +0.134 A 
ATOM      5  CE1 TYR A   1      21.738  -3.315  11.461  0.00  0.00    +0.036 A 
ATOM      6  CD1 TYR A   1      22.583  -4.302  10.985  0.00  0.00    -0.001 A 
ENDROOT
BRANCH   4   7
ATOM      7  OH  TYR A   1      20.525  -2.301  13.248  0.00  0.00    -0.506 OA
ATOM      8  HH  TYR A   1      20.368  -2.432  14.217  0.00  0.00    +0.292 HD
ENDBRANCH   4   7
BRANCH   1   9
ATOM      9  CB  TYR A   1      23.995  -6.395  11.320  0.00  0.00    +0.051 C 
BRANCH   9  10
ATOM     10  CA  TYR A   1      25.476  -6.083  11.545  0.00  0.00    +0.137 C 
BRANCH  10  11
ATOM     11  N   TYR A   1      25.847  -4.906  10.743  0.00  0.00    -0.239 NA
ATOM     12  H   TYR A   1      25.873  -4.964   9.705  0.00  0.00    +0.142 HD
ENDBRANCH  10  11
BRANCH  10  13
ATOM     13  C   TYR A   1      26.361  -7.292  11.285  0.00  0.00    +0.224 C 
ATOM     14  O   TYR A   1      26.027  -8.407  11.685  0.00  0.00    -0.287 OA
ENDBRANCH  10  13
ENDBRANCH   9  10
ENDBRANCH   1   9
TORSDOF 5
REMARK  Name = ../refined-set-2016/3m1k/3m1k_pocket.pdb
REMARK  136 active torsions:
REMARK  status: ('A' for Active; 'I' for Inactive)
REMARK    1  A    between atoms: _1  and  _3
REMARK    2  A    between atoms: _3  and  _4
REMARK    3  A    between atoms: _3  and  _6
REMARK    4  A    between atoms: _6  and  _7
REMARK    5  A    between atoms: _17  and  _19
REMARK    6  A    between atoms: _19  and  _20
REMARK    7  A    between atoms: _19  and  _22
REMARK    8  A    between atoms: _22  and  _23
REMARK    9  A    between atoms: _28  and  _29
REMARK   10  A    between atoms: _31  and  _33
REMARK   11  A    between atoms: _33  and  _34
REMARK   12  A    between atoms: _33  and  _36
REMARK   13  A    between atoms: _36  and  _37
REMARK   14  A    between atoms: _39  and  _41
REMARK   15  A    between atoms: _41  and  _42
REMARK   16  A    between atoms: _41  and  _44
REMARK   17  A    between atoms: _44  and  _45
REMARK   18  A    between atoms: _50  and  _52
REMARK   19  A    between atoms: _52  and  _53
REMARK   20  A    between atoms: _52  and  _55
REMARK   21  A    between atoms: _55  and  _56
REMARK   22  A    between atoms: _61  and  _63
REMARK   23  A    between atoms: _63  and  _64
REMARK   24  A    between atoms: _67  and  _69
REMARK   25  A    between atoms: _69  and  _70
REMARK   26  A    between atoms: _69  and  _72
REMARK   27  A    between atoms: _72  and  _73
REMARK   28  A    between atoms: _78  and  _80
REMARK   29  A    between atoms: _80  and  _81
REMARK   30  A    between atoms: _80  and  _83
REMARK   31  A    between atoms: _83  and  _84
REMARK   32  A    between atoms: _87  and  _89
REMARK   33  A    between atoms: _89  and  _90
REMARK   34  A    between atoms: _89  and  _92
REMARK   35  A    between atoms: _92  and  _93
REMARK   36  A    between atoms: _93  and  _94
REMARK   37  A    between atoms: _99  and  _101
REMARK   38  A    between atoms: _112  and  _115
REMARK   39  A    between atoms: _115  and  _116
REMARK   40  A    between atoms: _124  and  _125
REMARK   41  A    between atoms: _133  and  _135
REMARK   42  A    between atoms: _135  and  _136
REMARK   43  A    between atoms: _135  and  _138
REMARK   44  A    between atoms: _138  and  _139
REMARK   45  A    between atoms: _139  and  _140
REMARK   46  A    between atoms: _143  and  _145
REMARK   47  A    between atoms: _145  and  _146
REMARK   48  A    between atoms: _145  and  _148
REMARK   49  A    between atoms: _148  and  _149
REMARK   50  A    between atoms: _154  and  _156
REMARK   51  A    between atoms: _156  and  _157
REMARK   52  A    between atoms: _156  and  _159
REMARK   53  A    between atoms: _159  and  _160
REMARK   54  A    between atoms: _160  and  _161
REMARK   55  A    between atoms: _164  and  _166
REMARK   56  A    between atoms: _166  and  _167
REMARK   57  A    between atoms: _166  and  _169
REMARK   58  A    between atoms: _169  and  _170
REMARK   59  A    between atoms: _173  and  _175
REMARK   60  A    between atoms: _175  and  _176
REMARK   61  A    between atoms: _175  and  _178
REMARK   62  A    between atoms: _178  and  _179
REMARK   63  A    between atoms: _180  and  ZN_381
REMARK   64  A    between atoms: _184  and  _186
REMARK   65  A    between atoms: _186  and  _187
REMARK   66  A    between atoms: _186  and  _189
REMARK   67  A    between atoms: _189  and  _190
REMARK   68  A    between atoms: _193  and  _195
REMARK   69  A    between atoms: _195  and  _196
REMARK   70  A    between atoms: _195  and  _198
REMARK   71  A    between atoms: _201  and  _203
REMARK   72  A    between atoms: _203  and  _204
REMARK   73  A    between atoms: _203  and  _206
REMARK   74  A    between atoms: _206  and  _207
REMARK   75  A    between atoms: _212  and  _214
REMARK   76  A    between atoms: _214  and  _215
REMARK   77  A    between atoms: _214  and  _217
REMARK   78  A    between atoms: _217  and  _218
REMARK   79  A    between atoms: _224  and  _226
REMARK   80  A    between atoms: _226  and  _227
REMARK   81  A    between atoms: _226  and  _229
REMARK   82  A    between atoms: _232  and  _234
REMARK   83  A    between atoms: _234  and  _235
REMARK   84  A    between atoms: _234  and  _237
REMARK   85  A    between atoms: _237  and  _238
REMARK   86  A    between atoms: _241  and  _243
REMARK   87  A    between atoms: _243  and  _244
REMARK   88  A    between atoms: _247  and  _249
REMARK   89  A    between atoms: _249  and  _250
REMARK   90  A    between atoms: _249  and  _252
REMARK   91  A    between atoms: _255  and  _257
REMARK   92  A    between atoms: _257  and  _258
REMARK   93  A    between atoms: _257  and  _260
REMARK   94  A    between atoms: _260  and  _261
REMARK   95  A    between atoms: _263  and  _265
REMARK   96  A    between atoms: _265  and  _266
REMARK   97  A    between atoms: _265  and  _268
REMARK   98  A    between atoms: _268  and  _269
REMARK   99  A    between atoms: _272  and  _274
REMARK  100  A    between atoms: _274  and  _275
REMARK  101  A    between atoms: _274  and  _277
REMARK  102  A    between atoms: _277  and  _278
REMARK  103  A    between atoms: _281  and  _283
REMARK  104  A    between atoms: _283  and  _284
REMARK  105  A    between atoms: _283  and  _286
REMARK  106  A    between atoms: _286  and  _287
REMARK  107  A    between atoms: _291  and  _292
REMARK  108  A    between atoms: _298  and  _299
REMARK  109  A    between atoms: _304  and  _306
REMARK  110  A    between atoms: _306  and  _307
REMARK  111  A    between atoms: _306  and  _309
REMARK  112  A    between atoms: _309  and  _310
REMARK  113  A    between atoms: _313  and  _315
REMARK  114  A    between atoms: _315  and  _316
REMARK  115  A    between atoms: _315  and  _318
REMARK  116  A    between atoms: _318  and  _319
REMARK  117  A    between atoms: _322  and  _324
REMARK  118  A    between atoms: _324  and  _325
REMARK  119  A    between atoms: _324  and  _327
REMARK  120  A    between atoms: _329  and  _331
REMARK  121  A    between atoms: _331  and  _332
REMARK  122  A    between atoms: _331  and  _334
REMARK  123  A    between atoms: _337  and  _339
REMARK  124  A    between atoms: _339  and  _340
REMARK  125  A    between atoms: _339  and  _342
REMARK  126  A    between atoms: _342  and  _343
REMARK  127  A    between atoms: _353  and  _355
REMARK  128  A    between atoms: _355  and  _356
REMARK  129  A    between atoms: _355  and  _358
REMARK  130  A    between atoms: _358  and  _359
REMARK  131  A    between atoms: _364  and  _366
REMARK  132  A    between atoms: _366  and  _367
REMARK  133  A    between atoms: _366  and  _369
REMARK  134  A    between atoms: _369  and  _370
REMARK  135  A    between atoms: _370  and  _371
REMARK  136  A    between atoms: _371  and  _372
REMARK                            x       y       z     vdW  Elec       q    Type
REMARK                         _______ _______ _______ _____ _____    ______ ____
ROOT
ATOM      1  CA  SER A   1      18.268  -0.392  24.298  0.00  0.00    +0.163 C 
ENDROOT
BRANCH   1   2
ATOM      2  N   SER A   1      19.338   0.476  24.758  0.00  0.00    -0.237 NA
ATOM      3  H   SER A   1      19.812   1.079  24.056  0.00  0.00    +0.142 HD
ENDBRANCH   1   2
BRANCH   1   4
ATOM      4  C   SER A   1      18.767  -1.304  23.189  0.00  0.00    +0.227 C 
ATOM      5  O   SER A   1      19.758  -0.974  22.511  0.00  0.00    -0.287 OA
ENDBRANCH   1   4
BRANCH   1   6
ATOM      6  CB  SER A   1      17.107   0.443  23.772  0.00  0.00    +0.162 C 
BRANCH   6   7
ATOM      7  OG  SER A   1      16.505   1.119  24.873  0.00  0.00    -0.380 OA
ATOM      8  H   SER A   1      16.175   0.453  25.527  0.00  0.00    +0.211 HD
ENDBRANCH   6   7
ENDBRANCH   1   6
TORSDOF 4
REMARK  Name = ../refined-set-2016/3m1k/3m1k_pocket.pdb
REMARK  136 active torsions:
REMARK  status: ('A' for Active; 'I' for Inactive)
REMARK    1  A    between atoms: _1  and  _3
REMARK    2  A    between atoms: _3  and  _4
REMARK    3  A    between atoms: _3  and  _6
REMARK    4  A    between atoms: _6  and  _7
REMARK    5  A    between atoms: _17  and  _19
REMARK    6  A    between atoms: _19  and  _20
REMARK    7  A    between atoms: _19  and  _22
REMARK    8  A    between atoms: _22  and  _23
REMARK    9  A    between atoms: _28  and  _29
REMARK   10  A    between atoms: _31  and  _33
REMARK   11  A    between atoms: _33  and  _34
REMARK   12  A    between atoms: _33  and  _36
REMARK   13  A    between atoms: _36  and  _37
REMARK   14  A    between atoms: _39  and  _41
REMARK   15  A    between atoms: _41  and  _42
REMARK   16  A    between atoms: _41  and  _44
REMARK   17  A    between atoms: _44  and  _45
REMARK   18  A    between atoms: _50  and  _52
REMARK   19  A    between atoms: _52  and  _53
REMARK   20  A    between atoms: _52  and  _55
REMARK   21  A    between atoms: _55  and  _56
REMARK   22  A    between atoms: _61  and  _63
REMARK   23  A    between atoms: _63  and  _64
REMARK   24  A    between atoms: _67  and  _69
REMARK   25  A    between atoms: _69  and  _70
REMARK   26  A    between atoms: _69  and  _72
REMARK   27  A    between atoms: _72  and  _73
REMARK   28  A    between atoms: _78  and  _80
REMARK   29  A    between atoms: _80  and  _81
REMARK   30  A    between atoms: _80  and  _83
REMARK   31  A    between atoms: _83  and  _84
REMARK   32  A    between atoms: _87  and  _89
REMARK   33  A    between atoms: _89  and  _90
REMARK   34  A    between atoms: _89  and  _92
REMARK   35  A    between atoms: _92  and  _93
REMARK   36  A    between atoms: _93  and  _94
REMARK   37  A    between atoms: _99  and  _101
REMARK   38  A    between atoms: _112  and  _115
REMARK   39  A    between atoms: _115  and  _116
REMARK   40  A    between atoms: _124  and  _125
REMARK   41  A    between atoms: _133  and  _135
REMARK   42  A    between atoms: _135  and  _136
REMARK   43  A    between atoms: _135  and  _138
REMARK   44  A    between atoms: _138  and  _139
REMARK   45  A    between atoms: _139  and  _140
REMARK   46  A    between atoms: _143  and  _145
REMARK   47  A    between atoms: _145  and  _146
REMARK   48  A    between atoms: _145  and  _148
REMARK   49  A    between atoms: _148  and  _149
REMARK   50  A    between atoms: _154  and  _156
REMARK   51  A    between atoms: _156  and  _157
REMARK   52  A    between atoms: _156  and  _159
REMARK   53  A    between atoms: _159  and  _160
REMARK   54  A    between atoms: _160  and  _161
REMARK   55  A    between atoms: _164  and  _166
REMARK   56  A    between atoms: _166  and  _167
REMARK   57  A    between atoms: _166  and  _169
REMARK   58  A    between atoms: _169  and  _170
REMARK   59  A    between atoms: _173  and  _175
REMARK   60  A    between atoms: _175  and  _176
REMARK   61  A    between atoms: _175  and  _178
REMARK   62  A    between atoms: _178  and  _179
REMARK   63  A    between atoms: _180  and  ZN_381
REMARK   64  A    between atoms: _184  and  _186
REMARK   65  A    between atoms: _186  and  _187
REMARK   66  A    between atoms: _186  and  _189
REMARK   67  A    between atoms: _189  and  _190
REMARK   68  A    between atoms: _193  and  _195
REMARK   69  A    between atoms: _195  and  _196
REMARK   70  A    between atoms: _195  and  _198
REMARK   71  A    between atoms: _201  and  _203
REMARK   72  A    between atoms: _203  and  _204
REMARK   73  A    between atoms: _203  and  _206
REMARK   74  A    between atoms: _206  and  _207
REMARK   75  A    between atoms: _212  and  _214
REMARK   76  A    between atoms: _214  and  _215
REMARK   77  A    between atoms: _214  and  _217
REMARK   78  A    between atoms: _217  and  _218
REMARK   79  A    between atoms: _224  and  _226
REMARK   80  A    between atoms: _226  and  _227
REMARK   81  A    between atoms: _226  and  _229
REMARK   82  A    between atoms: _232  and  _234
REMARK   83  A    between atoms: _234  and  _235
REMARK   84  A    between atoms: _234  and  _237
REMARK   85  A    between atoms: _237  and  _238
REMARK   86  A    between atoms: _241  and  _243
REMARK   87  A    between atoms: _243  and  _244
REMARK   88  A    between atoms: _247  and  _249
REMARK   89  A    between atoms: _249  and  _250
REMARK   90  A    between atoms: _249  and  _252
REMARK   91  A    between atoms: _255  and  _257
REMARK   92  A    between atoms: _257  and  _258
REMARK   93  A    between atoms: _257  and  _260
REMARK   94  A    between atoms: _260  and  _261
REMARK   95  A    between atoms: _263  and  _265
REMARK   96  A    between atoms: _265  and  _266
REMARK   97  A    between atoms: _265  and  _268
REMARK   98  A    between atoms: _268  and  _269
REMARK   99  A    between atoms: _272  and  _274
REMARK  100  A    between atoms: _274  and  _275
REMARK  101  A    between atoms: _274  and  _277
REMARK  102  A    between atoms: _277  and  _278
REMARK  103  A    between atoms: _281  and  _283
REMARK  104  A    between atoms: _283  and  _284
REMARK  105  A    between atoms: _283  and  _286
REMARK  106  A    between atoms: _286  and  _287
REMARK  107  A    between atoms: _291  and  _292
REMARK  108  A    between atoms: _298  and  _299
REMARK  109  A    between atoms: _304  and  _306
REMARK  110  A    between atoms: _306  and  _307
REMARK  111  A    between atoms: _306  and  _309
REMARK  112  A    between atoms: _309  and  _310
REMARK  113  A    between atoms: _313  and  _315
REMARK  114  A    between atoms: _315  and  _316
REMARK  115  A    between atoms: _315  and  _318
REMARK  116  A    between atoms: _318  and  _319
REMARK  117  A    between atoms: _322  and  _324
REMARK  118  A    between atoms: _324  and  _325
REMARK  119  A    between atoms: _324  and  _327
REMARK  120  A    between atoms: _329  and  _331
REMARK  121  A    between atoms: _331  and  _332
REMARK  122  A    between atoms: _331  and  _334
REMARK  123  A    between atoms: _337  and  _339
REMARK  124  A    between atoms: _339  and  _340
REMARK  125  A    between atoms: _339  and  _342
REMARK  126  A    between atoms: _342  and  _343
REMARK  127  A    between atoms: _353  and  _355
REMARK  128  A    between atoms: _355  and  _356
REMARK  129  A    between atoms: _355  and  _358
REMARK  130  A    between atoms: _358  and  _359
REMARK  131  A    between atoms: _364  and  _366
REMARK  132  A    between atoms: _366  and  _367
REMARK  133  A    between atoms: _366  and  _369
REMARK  134  A    between atoms: _369  and  _370
REMARK  135  A    between atoms: _370  and  _371
REMARK  136  A    between atoms: _371  and  _372
REMARK                            x       y       z     vdW  Elec       q    Type
REMARK                         _______ _______ _______ _____ _____    ______ ____
ROOT
ATOM      1  CB  ASN A   1      18.645   3.776   5.330  0.00  0.00    +0.110 C 
ENDROOT
BRANCH   1   2
ATOM      2  CG  ASN A   1      18.396   2.923   6.559  0.00  0.00    +0.221 C 
ATOM      3  ND2 ASN A   1      17.907   3.596   7.582  0.00  0.00    -0.329 N 
ATOM      4 HD21 ASN A   1      17.729   3.112   8.485  0.00  0.00    +0.145 HD
ATOM      5 HD22 ASN A   1      17.699   4.610   7.486  0.00  0.00    +0.145 HD
ATOM      6  OD1 ASN A   1      18.673   1.726   6.574  0.00  0.00    -0.275 OA
ENDBRANCH   1   2
BRANCH   1   7
ATOM      7  CA  ASN A   1      19.015   2.956   4.113  0.00  0.00    +0.142 C 
BRANCH   7   8
ATOM      8  N   ASN A   1      17.870   2.135   3.672  0.00  0.00    -0.239 NA
ATOM      9  H   ASN A   1      17.307   1.601   4.364  0.00  0.00    +0.142 HD
ENDBRANCH   7   8
BRANCH   7  10
ATOM     10  C   ASN A   1      20.311   2.165   4.363  0.00  0.00    +0.225 C 
ATOM     11  O   ASN A   1      21.301   2.650   4.919  0.00  0.00    -0.287 OA
ENDBRANCH   7  10
ENDBRANCH   1   7
TORSDOF 4
REMARK  Name = ../refined-set-2016/3m1k/3m1k_pocket.pdb
REMARK  136 active torsions:
REMARK  status: ('A' for Active; 'I' for Inactive)
REMARK    1  A    between atoms: _1  and  _3
REMARK    2  A    between atoms: _3  and  _4
REMARK    3  A    between atoms: _3  and  _6
REMARK    4  A    between atoms: _6  and  _7
REMARK    5  A    between atoms: _17  and  _19
REMARK    6  A    between atoms: _19  and  _20
REMARK    7  A    between atoms: _19  and  _22
REMARK    8  A    between atoms: _22  and  _23
REMARK    9  A    between atoms: _28  and  _29
REMARK   10  A    between atoms: _31  and  _33
REMARK   11  A    between atoms: _33  and  _34
REMARK   12  A    between atoms: _33  and  _36
REMARK   13  A    between atoms: _36  and  _37
REMARK   14  A    between atoms: _39  and  _41
REMARK   15  A    between atoms: _41  and  _42
REMARK   16  A    between atoms: _41  and  _44
REMARK   17  A    between atoms: _44  and  _45
REMARK   18  A    between atoms: _50  and  _52
REMARK   19  A    between atoms: _52  and  _53
REMARK   20  A    between atoms: _52  and  _55
REMARK   21  A    between atoms: _55  and  _56
REMARK   22  A    between atoms: _61  and  _63
REMARK   23  A    between atoms: _63  and  _64
REMARK   24  A    between atoms: _67  and  _69
REMARK   25  A    between atoms: _69  and  _70
REMARK   26  A    between atoms: _69  and  _72
REMARK   27  A    between atoms: _72  and  _73
REMARK   28  A    between atoms: _78  and  _80
REMARK   29  A    between atoms: _80  and  _81
REMARK   30  A    between atoms: _80  and  _83
REMARK   31  A    between atoms: _83  and  _84
REMARK   32  A    between atoms: _87  and  _89
REMARK   33  A    between atoms: _89  and  _90
REMARK   34  A    between atoms: _89  and  _92
REMARK   35  A    between atoms: _92  and  _93
REMARK   36  A    between atoms: _93  and  _94
REMARK   37  A    between atoms: _99  and  _101
REMARK   38  A    between atoms: _112  and  _115
REMARK   39  A    between atoms: _115  and  _116
REMARK   40  A    between atoms: _124  and  _125
REMARK   41  A    between atoms: _133  and  _135
REMARK   42  A    between atoms: _135  and  _136
REMARK   43  A    between atoms: _135  and  _138
REMARK   44  A    between atoms: _138  and  _139
REMARK   45  A    between atoms: _139  and  _140
REMARK   46  A    between atoms: _143  and  _145
REMARK   47  A    between atoms: _145  and  _146
REMARK   48  A    between atoms: _145  and  _148
REMARK   49  A    between atoms: _148  and  _149
REMARK   50  A    between atoms: _154  and  _156
REMARK   51  A    between atoms: _156  and  _157
REMARK   52  A    between atoms: _156  and  _159
REMARK   53  A    between atoms: _159  and  _160
REMARK   54  A    between atoms: _160  and  _161
REMARK   55  A    between atoms: _164  and  _166
REMARK   56  A    between atoms: _166  and  _167
REMARK   57  A    between atoms: _166  and  _169
REMARK   58  A    between atoms: _169  and  _170
REMARK   59  A    between atoms: _173  and  _175
REMARK   60  A    between atoms: _175  and  _176
REMARK   61  A    between atoms: _175  and  _178
REMARK   62  A    between atoms: _178  and  _179
REMARK   63  A    between atoms: _180  and  ZN_381
REMARK   64  A    between atoms: _184  and  _186
REMARK   65  A    between atoms: _186  and  _187
REMARK   66  A    between atoms: _186  and  _189
REMARK   67  A    between atoms: _189  and  _190
REMARK   68  A    between atoms: _193  and  _195
REMARK   69  A    between atoms: _195  and  _196
REMARK   70  A    between atoms: _195  and  _198
REMARK   71  A    between atoms: _201  and  _203
REMARK   72  A    between atoms: _203  and  _204
REMARK   73  A    between atoms: _203  and  _206
REMARK   74  A    between atoms: _206  and  _207
REMARK   75  A    between atoms: _212  and  _214
REMARK   76  A    between atoms: _214  and  _215
REMARK   77  A    between atoms: _214  and  _217
REMARK   78  A    between atoms: _217  and  _218
REMARK   79  A    between atoms: _224  and  _226
REMARK   80  A    between atoms: _226  and  _227
REMARK   81  A    between atoms: _226  and  _229
REMARK   82  A    between atoms: _232  and  _234
REMARK   83  A    between atoms: _234  and  _235
REMARK   84  A    between atoms: _234  and  _237
REMARK   85  A    between atoms: _237  and  _238
REMARK   86  A    between atoms: _241  and  _243
REMARK   87  A    between atoms: _243  and  _244
REMARK   88  A    between atoms: _247  and  _249
REMARK   89  A    between atoms: _249  and  _250
REMARK   90  A    between atoms: _249  and  _252
REMARK   91  A    between atoms: _255  and  _257
REMARK   92  A    between atoms: _257  and  _258
REMARK   93  A    between atoms: _257  and  _260
REMARK   94  A    between atoms: _260  and  _261
REMARK   95  A    between atoms: _263  and  _265
REMARK   96  A    between atoms: _265  and  _266
REMARK   97  A    between atoms: _265  and  _268
REMARK   98  A    between atoms: _268  and  _269
REMARK   99  A    between atoms: _272  and  _274
REMARK  100  A    between atoms: _274  and  _275
REMARK  101  A    between atoms: _274  and  _277
REMARK  102  A    between atoms: _277  and  _278
REMARK  103  A    between atoms: _281  and  _283
REMARK  104  A    between atoms: _283  and  _284
REMARK  105  A    between atoms: _283  and  _286
REMARK  106  A    between atoms: _286  and  _287
REMARK  107  A    between atoms: _291  and  _292
REMARK  108  A    between atoms: _298  and  _299
REMARK  109  A    between atoms: _304  and  _306
REMARK  110  A    between atoms: _306  and  _307
REMARK  111  A    between atoms: _306  and  _309
REMARK  112  A    between atoms: _309  and  _310
REMARK  113  A    between atoms: _313  and  _315
REMARK  114  A    between atoms: _315  and  _316
REMARK  115  A    between atoms: _315  and  _318
REMARK  116  A    between atoms: _318  and  _319
REMARK  117  A    between atoms: _322  and  _324
REMARK  118  A    between atoms: _324  and  _325
REMARK  119  A    between atoms: _324  and  _327
REMARK  120  A    between atoms: _329  and  _331
REMARK  121  A    between atoms: _331  and  _332
REMARK  122  A    between atoms: _331  and  _334
REMARK  123  A    between atoms: _337  and  _339
REMARK  124  A    between atoms: _339  and  _340
REMARK  125  A    between atoms: _339  and  _342
REMARK  126  A    between atoms: _342  and  _343
REMARK  127  A    between atoms: _353  and  _355
REMARK  128  A    between atoms: _355  and  _356
REMARK  129  A    between atoms: _355  and  _358
REMARK  130  A    between atoms: _358  and  _359
REMARK  131  A    between atoms: _364  and  _366
REMARK  132  A    between atoms: _366  and  _367
REMARK  133  A    between atoms: _366  and  _369
REMARK  134  A    between atoms: _369  and  _370
REMARK  135  A    between atoms: _370  and  _371
REMARK  136  A    between atoms: _371  and  _372
REMARK                            x       y       z     vdW  Elec       q    Type
REMARK                         _______ _______ _______ _____ _____    ______ ____
ROOT
ATOM      1  CA  HIS A   1      20.426  -1.049   7.536  0.00  0.00    +0.151 C 
ENDROOT
BRANCH   1   2
ATOM      2  C   HIS A   1      19.055  -1.701   7.736  0.00  0.00    +0.239 C 
ATOM      3  O   HIS A   1      18.929  -2.744   8.353  0.00  0.00    -0.274 OA
ATOM      4  N   ALA A   2      18.019  -1.053   7.278  0.00  0.00    -0.298 N 
ATOM      5  H   ALA A   2      18.234  -0.147   6.815  0.00  0.00    +0.150 HD
BRANCH   4   6
ATOM      6  CA  ALA A   2      16.624  -1.404   7.317  0.00  0.00    +0.137 C 
ATOM      7  CB  ALA A   2      16.041  -1.096   8.684  0.00  0.00    +0.030 C 
BRANCH   6   8
ATOM      8  C   ALA A   2      15.899  -0.677   6.198  0.00  0.00    +0.227 C 
ATOM      9  O   ALA A   2      16.584  -0.105   5.344  0.00  0.00    -0.286 OA
ENDBRANCH   6   8
ENDBRANCH   4   6
ENDBRANCH   1   2
BRANCH   1  10
ATOM     10  N   HIS A   1      20.566  -0.433   6.223  0.00  0.00    -0.238 NA
ATOM     11  H   HIS A   1      19.864   0.290   5.965  0.00  0.00    +0.142 HD
ENDBRANCH   1  10
BRANCH   1  12
ATOM     12  CB  HIS A   1      20.634  -0.053   8.691  0.00  0.00    +0.074 C 
BRANCH  12  13
ATOM     13  CG  HIS A   1      21.875   0.767   8.529  0.00  0.00    +0.082 A 
ATOM     14  ND1 HIS A   1      23.119   0.208   8.679  0.00  0.00    -0.227 NA
ATOM     15  CE1 HIS A   1      24.072   1.119   8.496  0.00  0.00    +0.199 A 
ATOM     16  NE2 HIS A   1      23.462   2.260   8.212  0.00  0.00    -0.221 NA
ATOM     17  CD2 HIS A   1      22.090   2.057   8.234  0.00  0.00    +0.115 A 
ENDBRANCH  12  13
ENDBRANCH   1  12
TORSDOF 6
REMARK  Name = ../refined-set-2016/3m1k/3m1k_pocket.pdb
REMARK  136 active torsions:
REMARK  status: ('A' for Active; 'I' for Inactive)
REMARK    1  A    between atoms: _1  and  _3
REMARK    2  A    between atoms: _3  and  _4
REMARK    3  A    between atoms: _3  and  _6
REMARK    4  A    between atoms: _6  and  _7
REMARK    5  A    between atoms: _17  and  _19
REMARK    6  A    between atoms: _19  and  _20
REMARK    7  A    between atoms: _19  and  _22
REMARK    8  A    between atoms: _22  and  _23
REMARK    9  A    between atoms: _28  and  _29
REMARK   10  A    between atoms: _31  and  _33
REMARK   11  A    between atoms: _33  and  _34
REMARK   12  A    between atoms: _33  and  _36
REMARK   13  A    between atoms: _36  and  _37
REMARK   14  A    between atoms: _39  and  _41
REMARK   15  A    between atoms: _41  and  _42
REMARK   16  A    between atoms: _41  and  _44
REMARK   17  A    between atoms: _44  and  _45
REMARK   18  A    between atoms: _50  and  _52
REMARK   19  A    between atoms: _52  and  _53
REMARK   20  A    between atoms: _52  and  _55
REMARK   21  A    between atoms: _55  and  _56
REMARK   22  A    between atoms: _61  and  _63
REMARK   23  A    between atoms: _63  and  _64
REMARK   24  A    between atoms: _67  and  _69
REMARK   25  A    between atoms: _69  and  _70
REMARK   26  A    between atoms: _69  and  _72
REMARK   27  A    between atoms: _72  and  _73
REMARK   28  A    between atoms: _78  and  _80
REMARK   29  A    between atoms: _80  and  _81
REMARK   30  A    between atoms: _80  and  _83
REMARK   31  A    between atoms: _83  and  _84
REMARK   32  A    between atoms: _87  and  _89
REMARK   33  A    between atoms: _89  and  _90
REMARK   34  A    between atoms: _89  and  _92
REMARK   35  A    between atoms: _92  and  _93
REMARK   36  A    between atoms: _93  and  _94
REMARK   37  A    between atoms: _99  and  _101
REMARK   38  A    between atoms: _112  and  _115
REMARK   39  A    between atoms: _115  and  _116
REMARK   40  A    between atoms: _124  and  _125
REMARK   41  A    between atoms: _133  and  _135
REMARK   42  A    between atoms: _135  and  _136
REMARK   43  A    between atoms: _135  and  _138
REMARK   44  A    between atoms: _138  and  _139
REMARK   45  A    between atoms: _139  and  _140
REMARK   46  A    between atoms: _143  and  _145
REMARK   47  A    between atoms: _145  and  _146
REMARK   48  A    between atoms: _145  and  _148
REMARK   49  A    between atoms: _148  and  _149
REMARK   50  A    between atoms: _154  and  _156
REMARK   51  A    between atoms: _156  and  _157
REMARK   52  A    between atoms: _156  and  _159
REMARK   53  A    between atoms: _159  and  _160
REMARK   54  A    between atoms: _160  and  _161
REMARK   55  A    between atoms: _164  and  _166
REMARK   56  A    between atoms: _166  and  _167
REMARK   57  A    between atoms: _166  and  _169
REMARK   58  A    between atoms: _169  and  _170
REMARK   59  A    between atoms: _173  and  _175
REMARK   60  A    between atoms: _175  and  _176
REMARK   61  A    between atoms: _175  and  _178
REMARK   62  A    between atoms: _178  and  _179
REMARK   63  A    between atoms: _180  and  ZN_381
REMARK   64  A    between atoms: _184  and  _186
REMARK   65  A    between atoms: _186  and  _187
REMARK   66  A    between atoms: _186  and  _189
REMARK   67  A    between atoms: _189  and  _190
REMARK   68  A    between atoms: _193  and  _195
REMARK   69  A    between atoms: _195  and  _196
REMARK   70  A    between atoms: _195  and  _198
REMARK   71  A    between atoms: _201  and  _203
REMARK   72  A    between atoms: _203  and  _204
REMARK   73  A    between atoms: _203  and  _206
REMARK   74  A    between atoms: _206  and  _207
REMARK   75  A    between atoms: _212  and  _214
REMARK   76  A    between atoms: _214  and  _215
REMARK   77  A    between atoms: _214  and  _217
REMARK   78  A    between atoms: _217  and  _218
REMARK   79  A    between atoms: _224  and  _226
REMARK   80  A    between atoms: _226  and  _227
REMARK   81  A    between atoms: _226  and  _229
REMARK   82  A    between atoms: _232  and  _234
REMARK   83  A    between atoms: _234  and  _235
REMARK   84  A    between atoms: _234  and  _237
REMARK   85  A    between atoms: _237  and  _238
REMARK   86  A    between atoms: _241  and  _243
REMARK   87  A    between atoms: _243  and  _244
REMARK   88  A    between atoms: _247  and  _249
REMARK   89  A    between atoms: _249  and  _250
REMARK   90  A    between atoms: _249  and  _252
REMARK   91  A    between atoms: _255  and  _257
REMARK   92  A    between atoms: _257  and  _258
REMARK   93  A    between atoms: _257  and  _260
REMARK   94  A    between atoms: _260  and  _261
REMARK   95  A    between atoms: _263  and  _265
REMARK   96  A    between atoms: _265  and  _266
REMARK   97  A    between atoms: _265  and  _268
REMARK   98  A    between atoms: _268  and  _269
REMARK   99  A    between atoms: _272  and  _274
REMARK  100  A    between atoms: _274  and  _275
REMARK  101  A    between atoms: _274  and  _277
REMARK  102  A    between atoms: _277  and  _278
REMARK  103  A    between atoms: _281  and  _283
REMARK  104  A    between atoms: _283  and  _284
REMARK  105  A    between atoms: _283  and  _286
REMARK  106  A    between atoms: _286  and  _287
REMARK  107  A    between atoms: _291  and  _292
REMARK  108  A    between atoms: _298  and  _299
REMARK  109  A    between atoms: _304  and  _306
REMARK  110  A    between atoms: _306  and  _307
REMARK  111  A    between atoms: _306  and  _309
REMARK  112  A    between atoms: _309  and  _310
REMARK  113  A    between atoms: _313  and  _315
REMARK  114  A    between atoms: _315  and  _316
REMARK  115  A    between atoms: _315  and  _318
REMARK  116  A    between atoms: _318  and  _319
REMARK  117  A    between atoms: _322  and  _324
REMARK  118  A    between atoms: _324  and  _325
REMARK  119  A    between atoms: _324  and  _327
REMARK  120  A    between atoms: _329  and  _331
REMARK  121  A    between atoms: _331  and  _332
REMARK  122  A    between atoms: _331  and  _334
REMARK  123  A    between atoms: _337  and  _339
REMARK  124  A    between atoms: _339  and  _340
REMARK  125  A    between atoms: _339  and  _342
REMARK  126  A    between atoms: _342  and  _343
REMARK  127  A    between atoms: _353  and  _355
REMARK  128  A    between atoms: _355  and  _356
REMARK  129  A    between atoms: _355  and  _358
REMARK  130  A    between atoms: _358  and  _359
REMARK  131  A    between atoms: _364  and  _366
REMARK  132  A    between atoms: _366  and  _367
REMARK  133  A    between atoms: _366  and  _369
REMARK  134  A    between atoms: _369  and  _370
REMARK  135  A    between atoms: _370  and  _371
REMARK  136  A    between atoms: _371  and  _372
REMARK                            x       y       z     vdW  Elec       q    Type
REMARK                         _______ _______ _______ _____ _____    ______ ____
ROOT
ATOM      1  CB  ASN A   1      12.851   4.629   7.036  0.00  0.00    +0.110 C 
ENDROOT
BRANCH   1   2
ATOM      2  CG  ASN A   1      13.996   4.464   7.984  0.00  0.00    +0.221 C 
ATOM      3  OD1 ASN A   1      14.007   3.449   8.685  0.00  0.00    -0.275 OA
ATOM      4  ND2 ASN A   1      14.901   5.440   7.977  0.00  0.00    -0.329 N 
ATOM      5 HD21 ASN A   1      15.724   5.390   8.611  0.00  0.00    +0.145 HD
ATOM      6 HD22 ASN A   1      14.785   6.252   7.338  0.00  0.00    +0.145 HD
ENDBRANCH   1   2
BRANCH   1   7
ATOM      7  CA  ASN A   1      12.089   3.379   6.650  0.00  0.00    +0.142 C 
BRANCH   7   8
ATOM      8  N   ASN A   1      12.920   2.425   5.922  0.00  0.00    -0.239 NA
ATOM      9  H   ASN A   1      13.467   2.747   5.098  0.00  0.00    +0.142 HD
ENDBRANCH   7   8
BRANCH   7  10
ATOM     10  C   ASN A   1      10.854   3.777   5.827  0.00  0.00    +0.225 C 
ATOM     11  O   ASN A   1      11.027   4.197   4.679  0.00  0.00    -0.287 OA
ENDBRANCH   7  10
ENDBRANCH   1   7
TORSDOF 4
REMARK  Name = ../refined-set-2016/3m1k/3m1k_pocket.pdb
REMARK  136 active torsions:
REMARK  status: ('A' for Active; 'I' for Inactive)
REMARK    1  A    between atoms: _1  and  _3
REMARK    2  A    between atoms: _3  and  _4
REMARK    3  A    between atoms: _3  and  _6
REMARK    4  A    between atoms: _6  and  _7
REMARK    5  A    between atoms: _17  and  _19
REMARK    6  A    between atoms: _19  and  _20
REMARK    7  A    between atoms: _19  and  _22
REMARK    8  A    between atoms: _22  and  _23
REMARK    9  A    between atoms: _28  and  _29
REMARK   10  A    between atoms: _31  and  _33
REMARK   11  A    between atoms: _33  and  _34
REMARK   12  A    between atoms: _33  and  _36
REMARK   13  A    between atoms: _36  and  _37
REMARK   14  A    between atoms: _39  and  _41
REMARK   15  A    between atoms: _41  and  _42
REMARK   16  A    between atoms: _41  and  _44
REMARK   17  A    between atoms: _44  and  _45
REMARK   18  A    between atoms: _50  and  _52
REMARK   19  A    between atoms: _52  and  _53
REMARK   20  A    between atoms: _52  and  _55
REMARK   21  A    between atoms: _55  and  _56
REMARK   22  A    between atoms: _61  and  _63
REMARK   23  A    between atoms: _63  and  _64
REMARK   24  A    between atoms: _67  and  _69
REMARK   25  A    between atoms: _69  and  _70
REMARK   26  A    between atoms: _69  and  _72
REMARK   27  A    between atoms: _72  and  _73
REMARK   28  A    between atoms: _78  and  _80
REMARK   29  A    between atoms: _80  and  _81
REMARK   30  A    between atoms: _80  and  _83
REMARK   31  A    between atoms: _83  and  _84
REMARK   32  A    between atoms: _87  and  _89
REMARK   33  A    between atoms: _89  and  _90
REMARK   34  A    between atoms: _89  and  _92
REMARK   35  A    between atoms: _92  and  _93
REMARK   36  A    between atoms: _93  and  _94
REMARK   37  A    between atoms: _99  and  _101
REMARK   38  A    between atoms: _112  and  _115
REMARK   39  A    between atoms: _115  and  _116
REMARK   40  A    between atoms: _124  and  _125
REMARK   41  A    between atoms: _133  and  _135
REMARK   42  A    between atoms: _135  and  _136
REMARK   43  A    between atoms: _135  and  _138
REMARK   44  A    between atoms: _138  and  _139
REMARK   45  A    between atoms: _139  and  _140
REMARK   46  A    between atoms: _143  and  _145
REMARK   47  A    between atoms: _145  and  _146
REMARK   48  A    between atoms: _145  and  _148
REMARK   49  A    between atoms: _148  and  _149
REMARK   50  A    between atoms: _154  and  _156
REMARK   51  A    between atoms: _156  and  _157
REMARK   52  A    between atoms: _156  and  _159
REMARK   53  A    between atoms: _159  and  _160
REMARK   54  A    between atoms: _160  and  _161
REMARK   55  A    between atoms: _164  and  _166
REMARK   56  A    between atoms: _166  and  _167
REMARK   57  A    between atoms: _166  and  _169
REMARK   58  A    between atoms: _169  and  _170
REMARK   59  A    between atoms: _173  and  _175
REMARK   60  A    between atoms: _175  and  _176
REMARK   61  A    between atoms: _175  and  _178
REMARK   62  A    between atoms: _178  and  _179
REMARK   63  A    between atoms: _180  and  ZN_381
REMARK   64  A    between atoms: _184  and  _186
REMARK   65  A    between atoms: _186  and  _187
REMARK   66  A    between atoms: _186  and  _189
REMARK   67  A    between atoms: _189  and  _190
REMARK   68  A    between atoms: _193  and  _195
REMARK   69  A    between atoms: _195  and  _196
REMARK   70  A    between atoms: _195  and  _198
REMARK   71  A    between atoms: _201  and  _203
REMARK   72  A    between atoms: _203  and  _204
REMARK   73  A    between atoms: _203  and  _206
REMARK   74  A    between atoms: _206  and  _207
REMARK   75  A    between atoms: _212  and  _214
REMARK   76  A    between atoms: _214  and  _215
REMARK   77  A    between atoms: _214  and  _217
REMARK   78  A    between atoms: _217  and  _218
REMARK   79  A    between atoms: _224  and  _226
REMARK   80  A    between atoms: _226  and  _227
REMARK   81  A    between atoms: _226  and  _229
REMARK   82  A    between atoms: _232  and  _234
REMARK   83  A    between atoms: _234  and  _235
REMARK   84  A    between atoms: _234  and  _237
REMARK   85  A    between atoms: _237  and  _238
REMARK   86  A    between atoms: _241  and  _243
REMARK   87  A    between atoms: _243  and  _244
REMARK   88  A    between atoms: _247  and  _249
REMARK   89  A    between atoms: _249  and  _250
REMARK   90  A    between atoms: _249  and  _252
REMARK   91  A    between atoms: _255  and  _257
REMARK   92  A    between atoms: _257  and  _258
REMARK   93  A    between atoms: _257  and  _260
REMARK   94  A    between atoms: _260  and  _261
REMARK   95  A    between atoms: _263  and  _265
REMARK   96  A    between atoms: _265  and  _266
REMARK   97  A    between atoms: _265  and  _268
REMARK   98  A    between atoms: _268  and  _269
REMARK   99  A    between atoms: _272  and  _274
REMARK  100  A    between atoms: _274  and  _275
REMARK  101  A    between atoms: _274  and  _277
REMARK  102  A    between atoms: _277  and  _278
REMARK  103  A    between atoms: _281  and  _283
REMARK  104  A    between atoms: _283  and  _284
REMARK  105  A    between atoms: _283  and  _286
REMARK  106  A    between atoms: _286  and  _287
REMARK  107  A    between atoms: _291  and  _292
REMARK  108  A    between atoms: _298  and  _299
REMARK  109  A    between atoms: _304  and  _306
REMARK  110  A    between atoms: _306  and  _307
REMARK  111  A    between atoms: _306  and  _309
REMARK  112  A    between atoms: _309  and  _310
REMARK  113  A    between atoms: _313  and  _315
REMARK  114  A    between atoms: _315  and  _316
REMARK  115  A    between atoms: _315  and  _318
REMARK  116  A    between atoms: _318  and  _319
REMARK  117  A    between atoms: _322  and  _324
REMARK  118  A    between atoms: _324  and  _325
REMARK  119  A    between atoms: _324  and  _327
REMARK  120  A    between atoms: _329  and  _331
REMARK  121  A    between atoms: _331  and  _332
REMARK  122  A    between atoms: _331  and  _334
REMARK  123  A    between atoms: _337  and  _339
REMARK  124  A    between atoms: _339  and  _340
REMARK  125  A    between atoms: _339  and  _342
REMARK  126  A    between atoms: _342  and  _343
REMARK  127  A    between atoms: _353  and  _355
REMARK  128  A    between atoms: _355  and  _356
REMARK  129  A    between atoms: _355  and  _358
REMARK  130  A    between atoms: _358  and  _359
REMARK  131  A    between atoms: _364  and  _366
REMARK  132  A    between atoms: _366  and  _367
REMARK  133  A    between atoms: _366  and  _369
REMARK  134  A    between atoms: _369  and  _370
REMARK  135  A    between atoms: _370  and  _371
REMARK  136  A    between atoms: _371  and  _372
REMARK                            x       y       z     vdW  Elec       q    Type
REMARK                         _______ _______ _______ _____ _____    ______ ____
ROOT
ATOM      1  C   ILE A   1       8.461   9.352  10.767  0.00  0.00    +0.238 C 
ATOM      2  N   GLN A   2       8.618   8.126  11.277  0.00  0.00    -0.298 N 
ATOM      3  H   GLN A   2       8.542   7.987  12.305  0.00  0.00    +0.150 HD
ATOM      4  O   ILE A   1       8.526   9.582   9.542  0.00  0.00    -0.274 OA
ENDROOT
BRANCH   1   5
ATOM      5  CA  ILE A   1       8.143  10.505  11.709  0.00  0.00    +0.145 C 
BRANCH   5   6
ATOM      6  N   ILE A   1       7.258  10.110  12.802  0.00  0.00    -0.238 NA
ATOM      7  H   ILE A   1       7.613   9.453  13.526  0.00  0.00    +0.142 HD
ENDBRANCH   5   6
BRANCH   5   8
ATOM      8  CB  ILE A   1       9.416  11.162  12.254  0.00  0.00    +0.025 C 
ATOM      9  CG2 ILE A   1      10.166  10.290  13.265  0.00  0.00    +0.002 C 
BRANCH   8  10
ATOM     10  CG1 ILE A   1      10.338  11.605  11.130  0.00  0.00    +0.002 C 
ATOM     11  CD1 ILE A   1      11.480  12.492  11.556  0.00  0.00    +0.000 C 
ENDBRANCH   8  10
ENDBRANCH   5   8
ENDBRANCH   1   5
BRANCH   2  12
ATOM     12  CA  GLN A   2       8.888   7.002  10.435  0.00  0.00    +0.137 C 
BRANCH  12  13
ATOM     13  C   GLN A   2       8.594   5.716  11.204  0.00  0.00    +0.227 C 
ATOM     14  O   GLN A   2       8.570   5.739  12.439  0.00  0.00    -0.286 OA
ENDBRANCH  12  13
BRANCH  12  15
ATOM     15  CB  GLN A   2      10.331   6.960   9.948  0.00  0.00    +0.037 C 
BRANCH  15  16
ATOM     16  CG  GLN A   2      11.366   7.031  11.049  0.00  0.00    +0.087 C 
BRANCH  16  17
ATOM     17  CD  GLN A   2      12.125   5.753  11.250  0.00  0.00    +0.219 C 
ATOM     18  NE2 GLN A   2      13.448   5.834  11.356  0.00  0.00    -0.329 N 
ATOM     19 HE21 GLN A   2      14.010   4.975  11.524  0.00  0.00    +0.145 HD
ATOM     20 HE22 GLN A   2      13.921   6.756  11.271  0.00  0.00    +0.145 HD
ATOM     21  OE1 GLN A   2      11.541   4.689  11.345  0.00  0.00    -0.275 OA
ENDBRANCH  16  17
ENDBRANCH  15  16
ENDBRANCH  12  15
ENDBRANCH   2  12
TORSDOF 9
REMARK  Name = ../refined-set-2016/3m1k/3m1k_pocket.pdb
REMARK  136 active torsions:
REMARK  status: ('A' for Active; 'I' for Inactive)
REMARK    1  A    between atoms: _1  and  _3
REMARK    2  A    between atoms: _3  and  _4
REMARK    3  A    between atoms: _3  and  _6
REMARK    4  A    between atoms: _6  and  _7
REMARK    5  A    between atoms: _17  and  _19
REMARK    6  A    between atoms: _19  and  _20
REMARK    7  A    between atoms: _19  and  _22
REMARK    8  A    between atoms: _22  and  _23
REMARK    9  A    between atoms: _28  and  _29
REMARK   10  A    between atoms: _31  and  _33
REMARK   11  A    between atoms: _33  and  _34
REMARK   12  A    between atoms: _33  and  _36
REMARK   13  A    between atoms: _36  and  _37
REMARK   14  A    between atoms: _39  and  _41
REMARK   15  A    between atoms: _41  and  _42
REMARK   16  A    between atoms: _41  and  _44
REMARK   17  A    between atoms: _44  and  _45
REMARK   18  A    between atoms: _50  and  _52
REMARK   19  A    between atoms: _52  and  _53
REMARK   20  A    between atoms: _52  and  _55
REMARK   21  A    between atoms: _55  and  _56
REMARK   22  A    between atoms: _61  and  _63
REMARK   23  A    between atoms: _63  and  _64
REMARK   24  A    between atoms: _67  and  _69
REMARK   25  A    between atoms: _69  and  _70
REMARK   26  A    between atoms: _69  and  _72
REMARK   27  A    between atoms: _72  and  _73
REMARK   28  A    between atoms: _78  and  _80
REMARK   29  A    between atoms: _80  and  _81
REMARK   30  A    between atoms: _80  and  _83
REMARK   31  A    between atoms: _83  and  _84
REMARK   32  A    between atoms: _87  and  _89
REMARK   33  A    between atoms: _89  and  _90
REMARK   34  A    between atoms: _89  and  _92
REMARK   35  A    between atoms: _92  and  _93
REMARK   36  A    between atoms: _93  and  _94
REMARK   37  A    between atoms: _99  and  _101
REMARK   38  A    between atoms: _112  and  _115
REMARK   39  A    between atoms: _115  and  _116
REMARK   40  A    between atoms: _124  and  _125
REMARK   41  A    between atoms: _133  and  _135
REMARK   42  A    between atoms: _135  and  _136
REMARK   43  A    between atoms: _135  and  _138
REMARK   44  A    between atoms: _138  and  _139
REMARK   45  A    between atoms: _139  and  _140
REMARK   46  A    between atoms: _143  and  _145
REMARK   47  A    between atoms: _145  and  _146
REMARK   48  A    between atoms: _145  and  _148
REMARK   49  A    between atoms: _148  and  _149
REMARK   50  A    between atoms: _154  and  _156
REMARK   51  A    between atoms: _156  and  _157
REMARK   52  A    between atoms: _156  and  _159
REMARK   53  A    between atoms: _159  and  _160
REMARK   54  A    between atoms: _160  and  _161
REMARK   55  A    between atoms: _164  and  _166
REMARK   56  A    between atoms: _166  and  _167
REMARK   57  A    between atoms: _166  and  _169
REMARK   58  A    between atoms: _169  and  _170
REMARK   59  A    between atoms: _173  and  _175
REMARK   60  A    between atoms: _175  and  _176
REMARK   61  A    between atoms: _175  and  _178
REMARK   62  A    between atoms: _178  and  _179
REMARK   63  A    between atoms: _180  and  ZN_381
REMARK   64  A    between atoms: _184  and  _186
REMARK   65  A    between atoms: _186  and  _187
REMARK   66  A    between atoms: _186  and  _189
REMARK   67  A    between atoms: _189  and  _190
REMARK   68  A    between atoms: _193  and  _195
REMARK   69  A    between atoms: _195  and  _196
REMARK   70  A    between atoms: _195  and  _198
REMARK   71  A    between atoms: _201  and  _203
REMARK   72  A    between atoms: _203  and  _204
REMARK   73  A    between atoms: _203  and  _206
REMARK   74  A    between atoms: _206  and  _207
REMARK   75  A    between atoms: _212  and  _214
REMARK   76  A    between atoms: _214  and  _215
REMARK   77  A    between atoms: _214  and  _217
REMARK   78  A    between atoms: _217  and  _218
REMARK   79  A    between atoms: _224  and  _226
REMARK   80  A    between atoms: _226  and  _227
REMARK   81  A    between atoms: _226  and  _229
REMARK   82  A    between atoms: _232  and  _234
REMARK   83  A    between atoms: _234  and  _235
REMARK   84  A    between atoms: _234  and  _237
REMARK   85  A    between atoms: _237  and  _238
REMARK   86  A    between atoms: _241  and  _243
REMARK   87  A    between atoms: _243  and  _244
REMARK   88  A    between atoms: _247  and  _249
REMARK   89  A    between atoms: _249  and  _250
REMARK   90  A    between atoms: _249  and  _252
REMARK   91  A    between atoms: _255  and  _257
REMARK   92  A    between atoms: _257  and  _258
REMARK   93  A    between atoms: _257  and  _260
REMARK   94  A    between atoms: _260  and  _261
REMARK   95  A    between atoms: _263  and  _265
REMARK   96  A    between atoms: _265  and  _266
REMARK   97  A    between atoms: _265  and  _268
REMARK   98  A    between atoms: _268  and  _269
REMARK   99  A    between atoms: _272  and  _274
REMARK  100  A    between atoms: _274  and  _275
REMARK  101  A    between atoms: _274  and  _277
REMARK  102  A    between atoms: _277  and  _278
REMARK  103  A    between atoms: _281  and  _283
REMARK  104  A    between atoms: _283  and  _284
REMARK  105  A    between atoms: _283  and  _286
REMARK  106  A    between atoms: _286  and  _287
REMARK  107  A    between atoms: _291  and  _292
REMARK  108  A    between atoms: _298  and  _299
REMARK  109  A    between atoms: _304  and  _306
REMARK  110  A    between atoms: _306  and  _307
REMARK  111  A    between atoms: _306  and  _309
REMARK  112  A    between atoms: _309  and  _310
REMARK  113  A    between atoms: _313  and  _315
REMARK  114  A    between atoms: _315  and  _316
REMARK  115  A    between atoms: _315  and  _318
REMARK  116  A    between atoms: _318  and  _319
REMARK  117  A    between atoms: _322  and  _324
REMARK  118  A    between atoms: _324  and  _325
REMARK  119  A    between atoms: _324  and  _327
REMARK  120  A    between atoms: _329  and  _331
REMARK  121  A    between atoms: _331  and  _332
REMARK  122  A    between atoms: _331  and  _334
REMARK  123  A    between atoms: _337  and  _339
REMARK  124  A    between atoms: _339  and  _340
REMARK  125  A    between atoms: _339  and  _342
REMARK  126  A    between atoms: _342  and  _343
REMARK  127  A    between atoms: _353  and  _355
REMARK  128  A    between atoms: _355  and  _356
REMARK  129  A    between atoms: _355  and  _358
REMARK  130  A    between atoms: _358  and  _359
REMARK  131  A    between atoms: _364  and  _366
REMARK  132  A    between atoms: _366  and  _367
REMARK  133  A    between atoms: _366  and  _369
REMARK  134  A    between atoms: _369  and  _370
REMARK  135  A    between atoms: _370  and  _371
REMARK  136  A    between atoms: _371  and  _372
REMARK                            x       y       z     vdW  Elec       q    Type
REMARK                         _______ _______ _______ _____ _____    ______ ____
ROOT
ATOM      1  C   UNK A   3       9.461   0.493  15.665  0.00  0.00    +0.000 C 
ENDROOT
BRANCH   1   2
ATOM      2  C   UNK A   3       8.774   1.659  14.986  0.00  0.00    +0.000 C 
ATOM      3  N   LEU A   4       7.781   2.211  15.648  0.00  0.00    +0.000 N 
ATOM      4  H   LEU A   4       7.476   1.778  16.543  0.00  0.00    +0.000 HD
ATOM      5  O   UNK A   3       9.179   2.026  13.892  0.00  0.00    +0.000 OA
BRANCH   3   6
ATOM      6  CA  LEU A   4       7.084   3.415  15.175  0.00  0.00    +0.000 C 
BRANCH   6   7
ATOM      7  C   LEU A   4       7.692   4.575  15.984  0.00  0.00    +0.000 C 
ATOM      8  O   LEU A   4       7.570   4.636  17.216  0.00  0.00    +0.000 OA
ATOM      9  N   VAL A   5       8.414   5.428  15.269  0.00  0.00    +0.000 N 
ATOM     10  H   VAL A   5       8.375   5.367  14.232  0.00  0.00    +0.000 HD
BRANCH   9  11
ATOM     11  CA  VAL A   5       9.257   6.443  15.876  0.00  0.00    +0.000 C 
BRANCH  11  12
ATOM     12  C   VAL A   5       8.554   7.808  15.928  0.00  0.00    +0.000 C 
ATOM     13  N   HIS A   6       8.490   8.398  17.100  0.00  0.00    +0.000 N 
ATOM     14  H   HIS A   6       8.946   7.943  17.916  0.00  0.00    +0.000 HD
ATOM     15  O   VAL A   5       8.084   8.260  14.873  0.00  0.00    +0.000 OA
BRANCH  13  16
ATOM     16  CA  HIS A   6       7.808   9.658  17.296  0.00  0.00    +0.000 C 
BRANCH  16  17
ATOM     17  C   HIS A   6       8.674  10.661  18.069  0.00  0.00    +0.000 C 
ATOM     18  O   HIS A   6       9.429  10.249  18.945  0.00  0.00    +0.000 OA
ENDBRANCH  16  17
BRANCH  16  19
ATOM     19  CB  HIS A   6       6.513   9.463  18.102  0.00  0.00    +0.000 C 
BRANCH  19  20
ATOM     20  CG  HIS A   6       5.610   8.349  17.724  0.00  0.00    +0.000 A 
ATOM     21  ND1 HIS A   6       5.942   7.025  17.975  0.00  0.00    +0.000 NA
ATOM     22  CE1 HIS A   6       4.961   6.269  17.521  0.00  0.00    +0.000 A 
ATOM     23  NE2 HIS A   6       4.002   7.024  16.990  0.00  0.00    +0.000 NA
ATOM     24  CD2 HIS A   6       4.409   8.332  17.110  0.00  0.00    +0.000 A 
ENDBRANCH  19  20
ENDBRANCH  16  19
ENDBRANCH  13  16
ENDBRANCH  11  12
BRANCH  11  25
ATOM     25  CB  VAL A   5      10.570   6.582  15.079  0.00  0.00    +0.000 C 
ATOM     26  CG2 VAL A   5      11.479   7.618  15.722  0.00  0.00    +0.000 C 
ATOM     27  CG1 VAL A   5      11.256   5.224  14.964  0.00  0.00    +0.000 C 
ENDBRANCH  11  25
ENDBRANCH   9  11
ENDBRANCH   6   7
BRANCH   6  28
ATOM     28  CB  LEU A   4       5.598   3.278  15.359  0.00  0.00    +0.000 C 
BRANCH  28  29
ATOM     29  CG  LEU A   4       4.899   2.260  14.485  0.00  0.00    +0.000 C 
ATOM     30  CD2 LEU A   4       4.019   1.327  15.293  0.00  0.00    +0.000 C 
ATOM     31  CD1 LEU A   4       4.072   2.926  13.407  0.00  0.00    +0.000 C 
ENDBRANCH  28  29
ENDBRANCH   6  28
ENDBRANCH   3   6
ENDBRANCH   1   2
BRANCH   1  32
ATOM     32  N   UNK A   3       9.248  -0.737  14.925  0.00  0.00    +0.000 N 
ATOM     33  C   LEU A   2       8.611  -1.806  15.370  0.00  0.00    +0.000 C 
ATOM     34  O   LEU A   2       8.195  -1.897  16.537  0.00  0.00    +0.000 OA
ATOM     35  H   UNK A   3       9.631  -0.781  13.959  0.00  0.00    +0.000 HD
BRANCH  33  36
ATOM     36  CA  LEU A   2       8.373  -2.958  14.414  0.00  0.00    +0.000 C 
BRANCH  36  37
ATOM     37  N   LEU A   2       8.730  -4.218  15.044  0.00  0.00    +0.000 N 
ATOM     38  H   LEU A   2       8.002  -4.691  15.616  0.00  0.00    +0.000 HD
ATOM     39  C   UNK A   1       9.894  -4.802  14.947  0.00  0.00    +0.000 C 
ATOM     40  O   UNK A   1      10.803  -4.378  14.223  0.00  0.00    +0.000 OA
BRANCH  39  41
ATOM     41  C   UNK A   1      10.073  -6.070  15.792  0.00  0.00    +0.000 C 
BRANCH  41  42
ATOM     42  N   UNK A   1      10.573  -7.113  14.890  0.00  0.00    +0.000 NA
ATOM     43  H   UNK A   1      11.188  -6.855  14.092  0.00  0.00    +0.000 HD
ENDBRANCH  41  42
BRANCH  41  44
ATOM     44  C   UNK A   1      11.032  -5.853  16.963  0.00  0.00    +0.000 C 
BRANCH  44  45
ATOM     45  C   UNK A   1      10.530  -4.898  18.044  0.00  0.00    +0.000 C 
BRANCH  45  46
ATOM     46  C   UNK A   1      11.460  -4.827  19.239  0.00  0.00    +0.000 C 
ATOM     47  O   UNK A   1      11.518  -3.742  19.832  0.00  0.00    +0.000 OA
ATOM     48  O   UNK A   1      12.105  -5.880  19.512  0.00  0.00    +0.000 OA
ENDBRANCH  45  46
ENDBRANCH  44  45
ENDBRANCH  41  44
ENDBRANCH  39  41
ENDBRANCH  36  37
BRANCH  36  49
ATOM     49  CB  LEU A   2       6.882  -3.054  14.039  0.00  0.00    +0.000 C 
BRANCH  49  50
ATOM     50  CG  LEU A   2       6.153  -1.774  13.644  0.00  0.00    +0.000 C 
ATOM     51  CD2 LEU A   2       4.690  -2.102  13.365  0.00  0.00    +0.000 C 
ATOM     52  CD1 LEU A   2       6.769  -1.108  12.448  0.00  0.00    +0.000 C 
ENDBRANCH  49  50
ENDBRANCH  36  49
ENDBRANCH  33  36
ENDBRANCH   1  32
BRANCH   1  53
ATOM     53  C   UNK A   3      10.965   0.769  15.762  0.00  0.00    +0.000 C 
BRANCH  53  58
ATOM     54  N   UNK A   3      13.034  -0.414  16.662  0.00  0.00    +0.000 N 
ATOM     55  C   UNK A   3      13.313  -1.335  17.561  0.00  0.00    +0.000 A 
ATOM     56  N   UNK A   3      12.205  -1.761  18.139  0.00  0.00    +0.000 NA
ATOM     57  C   UNK A   3      11.169  -1.070  17.568  0.00  0.00    +0.000 A 
ATOM     58  C   UNK A   3      11.676  -0.204  16.653  0.00  0.00    +0.000 A 
BRANCH  54  72
ATOM     59  C   UNK A   1      10.991   0.476  10.393  0.00  0.00    +0.000 C 
ATOM     60  C   UNK A   1      10.889  -0.788  11.234  0.00  0.00    +0.000 C 
ATOM     61  O   UNK A   1      10.234  -0.772  12.274  0.00  0.00    +0.000 OA
ATOM     62  N   LEU A   2      11.544  -1.827  10.745  0.00  0.00    +0.000 N 
ATOM     63  CA  LEU A   2      11.592  -3.116  11.413  0.00  0.00    +0.000 C 
ATOM     64  C   LEU A   2      13.052  -3.574  11.600  0.00  0.00    +0.000 C 
ATOM     65  N   UNK A   3      13.163  -4.500  12.532  0.00  0.00    +0.000 N 
ATOM     66  H   UNK A   3      12.358  -4.649  13.174  0.00  0.00    +0.000 HD
ATOM     67  C   UNK A   3      14.344  -5.323  12.713  0.00  0.00    +0.000 C 
ATOM     68  C   UNK A   3      15.018  -5.046  14.048  0.00  0.00    +0.000 C 
ATOM     69  C   UNK A   3      15.277  -3.611  14.329  0.00  0.00    +0.000 A 
ATOM     70  C   UNK A   3      14.496  -2.609  14.760  0.00  0.00    +0.000 A 
ATOM     71  N   UNK A   3      15.270  -1.453  14.864  0.00  0.00    +0.000 N 
ATOM     72 ZN   UNK A   3      14.593   0.395  15.511  0.00  0.00    +0.000 Zn
ATOM     73  N   UNK A   1      13.805   1.164  13.808  0.00  0.00    +0.000 N 
ATOM     74  C   UNK A   1      13.274   2.387  13.616  0.00  0.00    +0.000 A 
ATOM     75  N   UNK A   1      12.734   2.456  12.414  0.00  0.00    +0.000 NA
ATOM     76  C   UNK A   1      12.922   1.276  11.768  0.00  0.00    +0.000 A 
ATOM     77  C   UNK A   1      13.581   0.487  12.660  0.00  0.00    +0.000 A 
ATOM     78  C   UNK A   3      16.485  -1.786  14.499  0.00  0.00    +0.000 A 
ATOM     79  N   UNK A   3      16.516  -3.065  14.163  0.00  0.00    +0.000 NA
ATOM     80  O   LEU A   2      13.936  -3.127  10.912  0.00  0.00    +0.000 OA
ATOM     81  H   LEU A   2      12.047  -1.717   9.842  0.00  0.00    +0.000 HD
ATOM     82  C   UNK A   1      12.430   0.975  10.377  0.00  0.00    +0.000 C 
BRANCH  59  83
ATOM     83  N   UNK A   1      10.097   1.470  10.978  0.00  0.00    +0.000 NA
ATOM     84  H   UNK A   1       9.848   1.379  11.984  0.00  0.00    +0.000 HD
ENDBRANCH  59  83
BRANCH  67  85
ATOM     85  C   UNK A   3      13.907  -6.773  12.612  0.00  0.00    +0.000 C 
ATOM     86  O   UNK A   3      12.857  -7.090  13.154  0.00  0.00    +0.000 OA
ENDBRANCH  67  85
BRANCH  63  87
ATOM     87  CB  LEU A   2      10.857  -4.187  10.601  0.00  0.00    +0.000 C 
BRANCH  87  88
ATOM     88  CG  LEU A   2       9.427  -3.938  10.215  0.00  0.00    +0.000 A 
ATOM     89  CD2 LEU A   2       8.388  -4.564  10.901  0.00  0.00    +0.000 A 
ATOM     90  CE2 LEU A   2       7.095  -4.384  10.535  0.00  0.00    +0.000 A 
ATOM     91  CZ  LEU A   2       6.777  -3.525   9.502  0.00  0.00    +0.000 A 
ATOM     92  CE1 LEU A   2       7.779  -2.887   8.803  0.00  0.00    +0.000 A 
ATOM     93  CD1 LEU A   2       9.077  -3.097   9.166  0.00  0.00    +0.000 A 
ENDBRANCH  87  88
ENDBRANCH  63  87
ENDBRANCH  54  72
ENDBRANCH  53  58
ENDBRANCH   1  53
TORSDOF 29
REMARK  Name = ../refined-set-2016/3m1k/3m1k_pocket.pdb
REMARK  136 active torsions:
REMARK  status: ('A' for Active; 'I' for Inactive)
REMARK    1  A    between atoms: _1  and  _3
REMARK    2  A    between atoms: _3  and  _4
REMARK    3  A    between atoms: _3  and  _6
REMARK    4  A    between atoms: _6  and  _7
REMARK    5  A    between atoms: _17  and  _19
REMARK    6  A    between atoms: _19  and  _20
REMARK    7  A    between atoms: _19  and  _22
REMARK    8  A    between atoms: _22  and  _23
REMARK    9  A    between atoms: _28  and  _29
REMARK   10  A    between atoms: _31  and  _33
REMARK   11  A    between atoms: _33  and  _34
REMARK   12  A    between atoms: _33  and  _36
REMARK   13  A    between atoms: _36  and  _37
REMARK   14  A    between atoms: _39  and  _41
REMARK   15  A    between atoms: _41  and  _42
REMARK   16  A    between atoms: _41  and  _44
REMARK   17  A    between atoms: _44  and  _45
REMARK   18  A    between atoms: _50  and  _52
REMARK   19  A    between atoms: _52  and  _53
REMARK   20  A    between atoms: _52  and  _55
REMARK   21  A    between atoms: _55  and  _56
REMARK   22  A    between atoms: _61  and  _63
REMARK   23  A    between atoms: _63  and  _64
REMARK   24  A    between atoms: _67  and  _69
REMARK   25  A    between atoms: _69  and  _70
REMARK   26  A    between atoms: _69  and  _72
REMARK   27  A    between atoms: _72  and  _73
REMARK   28  A    between atoms: _78  and  _80
REMARK   29  A    between atoms: _80  and  _81
REMARK   30  A    between atoms: _80  and  _83
REMARK   31  A    between atoms: _83  and  _84
REMARK   32  A    between atoms: _87  and  _89
REMARK   33  A    between atoms: _89  and  _90
REMARK   34  A    between atoms: _89  and  _92
REMARK   35  A    between atoms: _92  and  _93
REMARK   36  A    between atoms: _93  and  _94
REMARK   37  A    between atoms: _99  and  _101
REMARK   38  A    between atoms: _112  and  _115
REMARK   39  A    between atoms: _115  and  _116
REMARK   40  A    between atoms: _124  and  _125
REMARK   41  A    between atoms: _133  and  _135
REMARK   42  A    between atoms: _135  and  _136
REMARK   43  A    between atoms: _135  and  _138
REMARK   44  A    between atoms: _138  and  _139
REMARK   45  A    between atoms: _139  and  _140
REMARK   46  A    between atoms: _143  and  _145
REMARK   47  A    between atoms: _145  and  _146
REMARK   48  A    between atoms: _145  and  _148
REMARK   49  A    between atoms: _148  and  _149
REMARK   50  A    between atoms: _154  and  _156
REMARK   51  A    between atoms: _156  and  _157
REMARK   52  A    between atoms: _156  and  _159
REMARK   53  A    between atoms: _159  and  _160
REMARK   54  A    between atoms: _160  and  _161
REMARK   55  A    between atoms: _164  and  _166
REMARK   56  A    between atoms: _166  and  _167
REMARK   57  A    between atoms: _166  and  _169
REMARK   58  A    between atoms: _169  and  _170
REMARK   59  A    between atoms: _173  and  _175
REMARK   60  A    between atoms: _175  and  _176
REMARK   61  A    between atoms: _175  and  _178
REMARK   62  A    between atoms: _178  and  _179
REMARK   63  A    between atoms: _180  and  ZN_381
REMARK   64  A    between atoms: _184  and  _186
REMARK   65  A    between atoms: _186  and  _187
REMARK   66  A    between atoms: _186  and  _189
REMARK   67  A    between atoms: _189  and  _190
REMARK   68  A    between atoms: _193  and  _195
REMARK   69  A    between atoms: _195  and  _196
REMARK   70  A    between atoms: _195  and  _198
REMARK   71  A    between atoms: _201  and  _203
REMARK   72  A    between atoms: _203  and  _204
REMARK   73  A    between atoms: _203  and  _206
REMARK   74  A    between atoms: _206  and  _207
REMARK   75  A    between atoms: _212  and  _214
REMARK   76  A    between atoms: _214  and  _215
REMARK   77  A    between atoms: _214  and  _217
REMARK   78  A    between atoms: _217  and  _218
REMARK   79  A    between atoms: _224  and  _226
REMARK   80  A    between atoms: _226  and  _227
REMARK   81  A    between atoms: _226  and  _229
REMARK   82  A    between atoms: _232  and  _234
REMARK   83  A    between atoms: _234  and  _235
REMARK   84  A    between atoms: _234  and  _237
REMARK   85  A    between atoms: _237  and  _238
REMARK   86  A    between atoms: _241  and  _243
REMARK   87  A    between atoms: _243  and  _244
REMARK   88  A    between atoms: _247  and  _249
REMARK   89  A    between atoms: _249  and  _250
REMARK   90  A    between atoms: _249  and  _252
REMARK   91  A    between atoms: _255  and  _257
REMARK   92  A    between atoms: _257  and  _258
REMARK   93  A    between atoms: _257  and  _260
REMARK   94  A    between atoms: _260  and  _261
REMARK   95  A    between atoms: _263  and  _265
REMARK   96  A    between atoms: _265  and  _266
REMARK   97  A    between atoms: _265  and  _268
REMARK   98  A    between atoms: _268  and  _269
REMARK   99  A    between atoms: _272  and  _274
REMARK  100  A    between atoms: _274  and  _275
REMARK  101  A    between atoms: _274  and  _277
REMARK  102  A    between atoms: _277  and  _278
REMARK  103  A    between atoms: _281  and  _283
REMARK  104  A    between atoms: _283  and  _284
REMARK  105  A    between atoms: _283  and  _286
REMARK  106  A    between atoms: _286  and  _287
REMARK  107  A    between atoms: _291  and  _292
REMARK  108  A    between atoms: _298  and  _299
REMARK  109  A    between atoms: _304  and  _306
REMARK  110  A    between atoms: _306  and  _307
REMARK  111  A    between atoms: _306  and  _309
REMARK  112  A    between atoms: _309  and  _310
REMARK  113  A    between atoms: _313  and  _315
REMARK  114  A    between atoms: _315  and  _316
REMARK  115  A    between atoms: _315  and  _318
REMARK  116  A    between atoms: _318  and  _319
REMARK  117  A    between atoms: _322  and  _324
REMARK  118  A    between atoms: _324  and  _325
REMARK  119  A    between atoms: _324  and  _327
REMARK  120  A    between atoms: _329  and  _331
REMARK  121  A    between atoms: _331  and  _332
REMARK  122  A    between atoms: _331  and  _334
REMARK  123  A    between atoms: _337  and  _339
REMARK  124  A    between atoms: _339  and  _340
REMARK  125  A    between atoms: _339  and  _342
REMARK  126  A    between atoms: _342  and  _343
REMARK  127  A    between atoms: _353  and  _355
REMARK  128  A    between atoms: _355  and  _356
REMARK  129  A    between atoms: _355  and  _358
REMARK  130  A    between atoms: _358  and  _359
REMARK  131  A    between atoms: _364  and  _366
REMARK  132  A    between atoms: _366  and  _367
REMARK  133  A    between atoms: _366  and  _369
REMARK  134  A    between atoms: _369  and  _370
REMARK  135  A    between atoms: _370  and  _371
REMARK  136  A    between atoms: _371  and  _372
REMARK                            x       y       z     vdW  Elec       q    Type
REMARK                         _______ _______ _______ _____ _____    ______ ____
ROOT
ATOM      1  C   GLU A   1      15.177  -6.666  21.184  0.00  0.00    +0.238 C 
ATOM      2  O   GLU A   1      15.954  -7.257  21.955  0.00  0.00    -0.274 OA
ATOM      3  N   HIS A   2      14.036  -6.152  21.625  0.00  0.00    -0.298 N 
ATOM      4  H   HIS A   2      13.504  -5.477  21.039  0.00  0.00    +0.150 HD
ENDROOT
BRANCH   1   5
ATOM      5  CA  GLU A   1      15.500  -6.514  19.715  0.00  0.00    +0.145 C 
BRANCH   5   6
ATOM      6  N   GLU A   1      14.507  -7.210  18.883  0.00  0.00    -0.238 NA
ATOM      7  H   GLU A   1      13.643  -6.699  18.611  0.00  0.00    +0.142 HD
ENDBRANCH   5   6
BRANCH   5   8
ATOM      8  CB  GLU A   1      15.588  -5.080  19.258  0.00  0.00    +0.038 C 
BRANCH   8   9
ATOM      9  CG  GLU A   1      16.128  -4.981  17.836  0.00  0.00    +0.116 C 
BRANCH   9  10
ATOM     10  CD  GLU A   1      16.779  -3.681  17.498  0.00  0.00    +0.365 C 
ATOM     11  OE2 GLU A   1      16.116  -2.611  17.754  0.00  0.00    -0.246 OA
ATOM     12  OE1 GLU A   1      17.889  -3.673  16.955  0.00  0.00    -0.246 OA
ENDBRANCH   9  10
ENDBRANCH   8   9
ENDBRANCH   5   8
ENDBRANCH   1   5
BRANCH   3  13
ATOM     13  CA  HIS A   2      13.543  -6.535  22.917  0.00  0.00    +0.143 C 
BRANCH  13  14
ATOM     14  C   HIS A   2      13.199  -8.022  22.919  0.00  0.00    +0.227 C 
ATOM     15  O   HIS A   2      12.858  -8.630  21.908  0.00  0.00    -0.286 OA
ENDBRANCH  13  14
BRANCH  13  16
ATOM     16  CB  HIS A   2      12.281  -5.717  23.286  0.00  0.00    +0.075 C 
BRANCH  16  17
ATOM     17  CG  HIS A   2      12.650  -4.258  23.419  0.00  0.00    +0.082 A 
ATOM     18  CD2 HIS A   2      13.109  -3.543  24.462  0.00  0.00    +0.115 A 
ATOM     19  NE2 HIS A   2      13.347  -2.232  24.088  0.00  0.00    -0.221 NA
ATOM     20  CE1 HIS A   2      13.038  -2.177  22.793  0.00  0.00    +0.199 A 
ATOM     21  ND1 HIS A   2      12.635  -3.381  22.371  0.00  0.00    -0.227 NA
ENDBRANCH  16  17
ENDBRANCH  13  16
ENDBRANCH   3  13
TORSDOF 9
REMARK  Name = ../refined-set-2016/3m1k/3m1k_pocket.pdb
REMARK  136 active torsions:
REMARK  status: ('A' for Active; 'I' for Inactive)
REMARK    1  A    between atoms: _1  and  _3
REMARK    2  A    between atoms: _3  and  _4
REMARK    3  A    between atoms: _3  and  _6
REMARK    4  A    between atoms: _6  and  _7
REMARK    5  A    between atoms: _17  and  _19
REMARK    6  A    between atoms: _19  and  _20
REMARK    7  A    between atoms: _19  and  _22
REMARK    8  A    between atoms: _22  and  _23
REMARK    9  A    between atoms: _28  and  _29
REMARK   10  A    between atoms: _31  and  _33
REMARK   11  A    between atoms: _33  and  _34
REMARK   12  A    between atoms: _33  and  _36
REMARK   13  A    between atoms: _36  and  _37
REMARK   14  A    between atoms: _39  and  _41
REMARK   15  A    between atoms: _41  and  _42
REMARK   16  A    between atoms: _41  and  _44
REMARK   17  A    between atoms: _44  and  _45
REMARK   18  A    between atoms: _50  and  _52
REMARK   19  A    between atoms: _52  and  _53
REMARK   20  A    between atoms: _52  and  _55
REMARK   21  A    between atoms: _55  and  _56
REMARK   22  A    between atoms: _61  and  _63
REMARK   23  A    between atoms: _63  and  _64
REMARK   24  A    between atoms: _67  and  _69
REMARK   25  A    between atoms: _69  and  _70
REMARK   26  A    between atoms: _69  and  _72
REMARK   27  A    between atoms: _72  and  _73
REMARK   28  A    between atoms: _78  and  _80
REMARK   29  A    between atoms: _80  and  _81
REMARK   30  A    between atoms: _80  and  _83
REMARK   31  A    between atoms: _83  and  _84
REMARK   32  A    between atoms: _87  and  _89
REMARK   33  A    between atoms: _89  and  _90
REMARK   34  A    between atoms: _89  and  _92
REMARK   35  A    between atoms: _92  and  _93
REMARK   36  A    between atoms: _93  and  _94
REMARK   37  A    between atoms: _99  and  _101
REMARK   38  A    between atoms: _112  and  _115
REMARK   39  A    between atoms: _115  and  _116
REMARK   40  A    between atoms: _124  and  _125
REMARK   41  A    between atoms: _133  and  _135
REMARK   42  A    between atoms: _135  and  _136
REMARK   43  A    between atoms: _135  and  _138
REMARK   44  A    between atoms: _138  and  _139
REMARK   45  A    between atoms: _139  and  _140
REMARK   46  A    between atoms: _143  and  _145
REMARK   47  A    between atoms: _145  and  _146
REMARK   48  A    between atoms: _145  and  _148
REMARK   49  A    between atoms: _148  and  _149
REMARK   50  A    between atoms: _154  and  _156
REMARK   51  A    between atoms: _156  and  _157
REMARK   52  A    between atoms: _156  and  _159
REMARK   53  A    between atoms: _159  and  _160
REMARK   54  A    between atoms: _160  and  _161
REMARK   55  A    between atoms: _164  and  _166
REMARK   56  A    between atoms: _166  and  _167
REMARK   57  A    between atoms: _166  and  _169
REMARK   58  A    between atoms: _169  and  _170
REMARK   59  A    between atoms: _173  and  _175
REMARK   60  A    between atoms: _175  and  _176
REMARK   61  A    between atoms: _175  and  _178
REMARK   62  A    between atoms: _178  and  _179
REMARK   63  A    between atoms: _180  and  ZN_381
REMARK   64  A    between atoms: _184  and  _186
REMARK   65  A    between atoms: _186  and  _187
REMARK   66  A    between atoms: _186  and  _189
REMARK   67  A    between atoms: _189  and  _190
REMARK   68  A    between atoms: _193  and  _195
REMARK   69  A    between atoms: _195  and  _196
REMARK   70  A    between atoms: _195  and  _198
REMARK   71  A    between atoms: _201  and  _203
REMARK   72  A    between atoms: _203  and  _204
REMARK   73  A    between atoms: _203  and  _206
REMARK   74  A    between atoms: _206  and  _207
REMARK   75  A    between atoms: _212  and  _214
REMARK   76  A    between atoms: _214  and  _215
REMARK   77  A    between atoms: _214  and  _217
REMARK   78  A    between atoms: _217  and  _218
REMARK   79  A    between atoms: _224  and  _226
REMARK   80  A    between atoms: _226  and  _227
REMARK   81  A    between atoms: _226  and  _229
REMARK   82  A    between atoms: _232  and  _234
REMARK   83  A    between atoms: _234  and  _235
REMARK   84  A    between atoms: _234  and  _237
REMARK   85  A    between atoms: _237  and  _238
REMARK   86  A    between atoms: _241  and  _243
REMARK   87  A    between atoms: _243  and  _244
REMARK   88  A    between atoms: _247  and  _249
REMARK   89  A    between atoms: _249  and  _250
REMARK   90  A    between atoms: _249  and  _252
REMARK   91  A    between atoms: _255  and  _257
REMARK   92  A    between atoms: _257  and  _258
REMARK   93  A    between atoms: _257  and  _260
REMARK   94  A    between atoms: _260  and  _261
REMARK   95  A    between atoms: _263  and  _265
REMARK   96  A    between atoms: _265  and  _266
REMARK   97  A    between atoms: _265  and  _268
REMARK   98  A    between atoms: _268  and  _269
REMARK   99  A    between atoms: _272  and  _274
REMARK  100  A    between atoms: _274  and  _275
REMARK  101  A    between atoms: _274  and  _277
REMARK  102  A    between atoms: _277  and  _278
REMARK  103  A    between atoms: _281  and  _283
REMARK  104  A    between atoms: _283  and  _284
REMARK  105  A    between atoms: _283  and  _286
REMARK  106  A    between atoms: _286  and  _287
REMARK  107  A    between atoms: _291  and  _292
REMARK  108  A    between atoms: _298  and  _299
REMARK  109  A    between atoms: _304  and  _306
REMARK  110  A    between atoms: _306  and  _307
REMARK  111  A    between atoms: _306  and  _309
REMARK  112  A    between atoms: _309  and  _310
REMARK  113  A    between atoms: _313  and  _315
REMARK  114  A    between atoms: _315  and  _316
REMARK  115  A    between atoms: _315  and  _318
REMARK  116  A    between atoms: _318  and  _319
REMARK  117  A    between atoms: _322  and  _324
REMARK  118  A    between atoms: _324  and  _325
REMARK  119  A    between atoms: _324  and  _327
REMARK  120  A    between atoms: _329  and  _331
REMARK  121  A    between atoms: _331  and  _332
REMARK  122  A    between atoms: _331  and  _334
REMARK  123  A    between atoms: _337  and  _339
REMARK  124  A    between atoms: _339  and  _340
REMARK  125  A    between atoms: _339  and  _342
REMARK  126  A    between atoms: _342  and  _343
REMARK  127  A    between atoms: _353  and  _355
REMARK  128  A    between atoms: _355  and  _356
REMARK  129  A    between atoms: _355  and  _358
REMARK  130  A    between atoms: _358  and  _359
REMARK  131  A    between atoms: _364  and  _366
REMARK  132  A    between atoms: _366  and  _367
REMARK  133  A    between atoms: _366  and  _369
REMARK  134  A    between atoms: _369  and  _370
REMARK  135  A    between atoms: _370  and  _371
REMARK  136  A    between atoms: _371  and  _372
REMARK                            x       y       z     vdW  Elec       q    Type
REMARK                         _______ _______ _______ _____ _____    ______ ____
ROOT
ATOM      1  CB  PHE A   1      13.488  14.559  14.163  0.00  0.00    +0.051 C 
ENDROOT
BRANCH   1   2
ATOM      2  CG  PHE A   1      14.104  13.203  14.438  0.00  0.00    -0.020 A 
ATOM      3  CD2 PHE A   1      13.361  12.195  15.020  0.00  0.00    -0.004 A 
ATOM      4  CE2 PHE A   1      13.911  10.973  15.271  0.00  0.00    -0.000 A 
ATOM      5  CZ  PHE A   1      15.212  10.720  14.974  0.00  0.00    -0.000 A 
ATOM      6  CE1 PHE A   1      15.963  11.706  14.386  0.00  0.00    -0.000 A 
ATOM      7  CD1 PHE A   1      15.408  12.929  14.102  0.00  0.00    -0.004 A 
ENDBRANCH   1   2
BRANCH   1   8
ATOM      8  CA  PHE A   1      13.575  15.538  15.328  0.00  0.00    +0.137 C 
BRANCH   8   9
ATOM      9  N   PHE A   1      12.965  16.809  14.933  0.00  0.00    -0.239 NA
ATOM     10  H   PHE A   1      12.601  16.902  13.963  0.00  0.00    +0.142 HD
ENDBRANCH   8   9
BRANCH   8  11
ATOM     11  C   PHE A   1      15.019  15.712  15.780  0.00  0.00    +0.224 C 
ATOM     12  O   PHE A   1      15.457  15.125  16.776  0.00  0.00    -0.287 OA
ENDBRANCH   8  11
ENDBRANCH   1   8
TORSDOF 4
REMARK  Name = ../refined-set-2016/3m1k/3m1k_pocket.pdb
REMARK  136 active torsions:
REMARK  status: ('A' for Active; 'I' for Inactive)
REMARK    1  A    between atoms: _1  and  _3
REMARK    2  A    between atoms: _3  and  _4
REMARK    3  A    between atoms: _3  and  _6
REMARK    4  A    between atoms: _6  and  _7
REMARK    5  A    between atoms: _17  and  _19
REMARK    6  A    between atoms: _19  and  _20
REMARK    7  A    between atoms: _19  and  _22
REMARK    8  A    between atoms: _22  and  _23
REMARK    9  A    between atoms: _28  and  _29
REMARK   10  A    between atoms: _31  and  _33
REMARK   11  A    between atoms: _33  and  _34
REMARK   12  A    between atoms: _33  and  _36
REMARK   13  A    between atoms: _36  and  _37
REMARK   14  A    between atoms: _39  and  _41
REMARK   15  A    between atoms: _41  and  _42
REMARK   16  A    between atoms: _41  and  _44
REMARK   17  A    between atoms: _44  and  _45
REMARK   18  A    between atoms: _50  and  _52
REMARK   19  A    between atoms: _52  and  _53
REMARK   20  A    between atoms: _52  and  _55
REMARK   21  A    between atoms: _55  and  _56
REMARK   22  A    between atoms: _61  and  _63
REMARK   23  A    between atoms: _63  and  _64
REMARK   24  A    between atoms: _67  and  _69
REMARK   25  A    between atoms: _69  and  _70
REMARK   26  A    between atoms: _69  and  _72
REMARK   27  A    between atoms: _72  and  _73
REMARK   28  A    between atoms: _78  and  _80
REMARK   29  A    between atoms: _80  and  _81
REMARK   30  A    between atoms: _80  and  _83
REMARK   31  A    between atoms: _83  and  _84
REMARK   32  A    between atoms: _87  and  _89
REMARK   33  A    between atoms: _89  and  _90
REMARK   34  A    between atoms: _89  and  _92
REMARK   35  A    between atoms: _92  and  _93
REMARK   36  A    between atoms: _93  and  _94
REMARK   37  A    between atoms: _99  and  _101
REMARK   38  A    between atoms: _112  and  _115
REMARK   39  A    between atoms: _115  and  _116
REMARK   40  A    between atoms: _124  and  _125
REMARK   41  A    between atoms: _133  and  _135
REMARK   42  A    between atoms: _135  and  _136
REMARK   43  A    between atoms: _135  and  _138
REMARK   44  A    between atoms: _138  and  _139
REMARK   45  A    between atoms: _139  and  _140
REMARK   46  A    between atoms: _143  and  _145
REMARK   47  A    between atoms: _145  and  _146
REMARK   48  A    between atoms: _145  and  _148
REMARK   49  A    between atoms: _148  and  _149
REMARK   50  A    between atoms: _154  and  _156
REMARK   51  A    between atoms: _156  and  _157
REMARK   52  A    between atoms: _156  and  _159
REMARK   53  A    between atoms: _159  and  _160
REMARK   54  A    between atoms: _160  and  _161
REMARK   55  A    between atoms: _164  and  _166
REMARK   56  A    between atoms: _166  and  _167
REMARK   57  A    between atoms: _166  and  _169
REMARK   58  A    between atoms: _169  and  _170
REMARK   59  A    between atoms: _173  and  _175
REMARK   60  A    between atoms: _175  and  _176
REMARK   61  A    between atoms: _175  and  _178
REMARK   62  A    between atoms: _178  and  _179
REMARK   63  A    between atoms: _180  and  ZN_381
REMARK   64  A    between atoms: _184  and  _186
REMARK   65  A    between atoms: _186  and  _187
REMARK   66  A    between atoms: _186  and  _189
REMARK   67  A    between atoms: _189  and  _190
REMARK   68  A    between atoms: _193  and  _195
REMARK   69  A    between atoms: _195  and  _196
REMARK   70  A    between atoms: _195  and  _198
REMARK   71  A    between atoms: _201  and  _203
REMARK   72  A    between atoms: _203  and  _204
REMARK   73  A    between atoms: _203  and  _206
REMARK   74  A    between atoms: _206  and  _207
REMARK   75  A    between atoms: _212  and  _214
REMARK   76  A    between atoms: _214  and  _215
REMARK   77  A    between atoms: _214  and  _217
REMARK   78  A    between atoms: _217  and  _218
REMARK   79  A    between atoms: _224  and  _226
REMARK   80  A    between atoms: _226  and  _227
REMARK   81  A    between atoms: _226  and  _229
REMARK   82  A    between atoms: _232  and  _234
REMARK   83  A    between atoms: _234  and  _235
REMARK   84  A    between atoms: _234  and  _237
REMARK   85  A    between atoms: _237  and  _238
REMARK   86  A    between atoms: _241  and  _243
REMARK   87  A    between atoms: _243  and  _244
REMARK   88  A    between atoms: _247  and  _249
REMARK   89  A    between atoms: _249  and  _250
REMARK   90  A    between atoms: _249  and  _252
REMARK   91  A    between atoms: _255  and  _257
REMARK   92  A    between atoms: _257  and  _258
REMARK   93  A    between atoms: _257  and  _260
REMARK   94  A    between atoms: _260  and  _261
REMARK   95  A    between atoms: _263  and  _265
REMARK   96  A    between atoms: _265  and  _266
REMARK   97  A    between atoms: _265  and  _268
REMARK   98  A    between atoms: _268  and  _269
REMARK   99  A    between atoms: _272  and  _274
REMARK  100  A    between atoms: _274  and  _275
REMARK  101  A    between atoms: _274  and  _277
REMARK  102  A    between atoms: _277  and  _278
REMARK  103  A    between atoms: _281  and  _283
REMARK  104  A    between atoms: _283  and  _284
REMARK  105  A    between atoms: _283  and  _286
REMARK  106  A    between atoms: _286  and  _287
REMARK  107  A    between atoms: _291  and  _292
REMARK  108  A    between atoms: _298  and  _299
REMARK  109  A    between atoms: _304  and  _306
REMARK  110  A    between atoms: _306  and  _307
REMARK  111  A    between atoms: _306  and  _309
REMARK  112  A    between atoms: _309  and  _310
REMARK  113  A    between atoms: _313  and  _315
REMARK  114  A    between atoms: _315  and  _316
REMARK  115  A    between atoms: _315  and  _318
REMARK  116  A    between atoms: _318  and  _319
REMARK  117  A    between atoms: _322  and  _324
REMARK  118  A    between atoms: _324  and  _325
REMARK  119  A    between atoms: _324  and  _327
REMARK  120  A    between atoms: _329  and  _331
REMARK  121  A    between atoms: _331  and  _332
REMARK  122  A    between atoms: _331  and  _334
REMARK  123  A    between atoms: _337  and  _339
REMARK  124  A    between atoms: _339  and  _340
REMARK  125  A    between atoms: _339  and  _342
REMARK  126  A    between atoms: _342  and  _343
REMARK  127  A    between atoms: _353  and  _355
REMARK  128  A    between atoms: _355  and  _356
REMARK  129  A    between atoms: _355  and  _358
REMARK  130  A    between atoms: _358  and  _359
REMARK  131  A    between atoms: _364  and  _366
REMARK  132  A    between atoms: _366  and  _367
REMARK  133  A    between atoms: _366  and  _369
REMARK  134  A    between atoms: _369  and  _370
REMARK  135  A    between atoms: _370  and  _371
REMARK  136  A    between atoms: _371  and  _372
REMARK                            x       y       z     vdW  Elec       q    Type
REMARK                         _______ _______ _______ _____ _____    ______ ____
ROOT
ATOM      1  CA  VAL A   1      17.176  13.464  19.919  0.00  0.00    +0.133 C 
ENDROOT
BRANCH   1   2
ATOM      2  CB  VAL A   1      17.731  12.713  18.707  0.00  0.00    +0.023 C 
ATOM      3  CG2 VAL A   1      16.634  12.074  17.866  0.00  0.00    +0.002 C 
ATOM      4  CG1 VAL A   1      18.603  13.615  17.830  0.00  0.00    +0.002 C 
ENDBRANCH   1   2
BRANCH   1   5
ATOM      5  N   VAL A   1      16.324  14.597  19.544  0.00  0.00    -0.239 NA
ATOM      6  H   VAL A   1      16.375  15.038  18.604  0.00  0.00    +0.142 HD
ENDBRANCH   1   5
BRANCH   1   7
ATOM      7  C   VAL A   1      18.278  13.875  20.896  0.00  0.00    +0.224 C 
ATOM      8  O   VAL A   1      18.918  12.944  21.435  0.00  0.00    -0.287 OA
ENDBRANCH   1   7
TORSDOF 3
REMARK  Name = ../refined-set-2016/3m1k/3m1k_pocket.pdb
REMARK  136 active torsions:
REMARK  status: ('A' for Active; 'I' for Inactive)
REMARK    1  A    between atoms: _1  and  _3
REMARK    2  A    between atoms: _3  and  _4
REMARK    3  A    between atoms: _3  and  _6
REMARK    4  A    between atoms: _6  and  _7
REMARK    5  A    between atoms: _17  and  _19
REMARK    6  A    between atoms: _19  and  _20
REMARK    7  A    between atoms: _19  and  _22
REMARK    8  A    between atoms: _22  and  _23
REMARK    9  A    between atoms: _28  and  _29
REMARK   10  A    between atoms: _31  and  _33
REMARK   11  A    between atoms: _33  and  _34
REMARK   12  A    between atoms: _33  and  _36
REMARK   13  A    between atoms: _36  and  _37
REMARK   14  A    between atoms: _39  and  _41
REMARK   15  A    between atoms: _41  and  _42
REMARK   16  A    between atoms: _41  and  _44
REMARK   17  A    between atoms: _44  and  _45
REMARK   18  A    between atoms: _50  and  _52
REMARK   19  A    between atoms: _52  and  _53
REMARK   20  A    between atoms: _52  and  _55
REMARK   21  A    between atoms: _55  and  _56
REMARK   22  A    between atoms: _61  and  _63
REMARK   23  A    between atoms: _63  and  _64
REMARK   24  A    between atoms: _67  and  _69
REMARK   25  A    between atoms: _69  and  _70
REMARK   26  A    between atoms: _69  and  _72
REMARK   27  A    between atoms: _72  and  _73
REMARK   28  A    between atoms: _78  and  _80
REMARK   29  A    between atoms: _80  and  _81
REMARK   30  A    between atoms: _80  and  _83
REMARK   31  A    between atoms: _83  and  _84
REMARK   32  A    between atoms: _87  and  _89
REMARK   33  A    between atoms: _89  and  _90
REMARK   34  A    between atoms: _89  and  _92
REMARK   35  A    between atoms: _92  and  _93
REMARK   36  A    between atoms: _93  and  _94
REMARK   37  A    between atoms: _99  and  _101
REMARK   38  A    between atoms: _112  and  _115
REMARK   39  A    between atoms: _115  and  _116
REMARK   40  A    between atoms: _124  and  _125
REMARK   41  A    between atoms: _133  and  _135
REMARK   42  A    between atoms: _135  and  _136
REMARK   43  A    between atoms: _135  and  _138
REMARK   44  A    between atoms: _138  and  _139
REMARK   45  A    between atoms: _139  and  _140
REMARK   46  A    between atoms: _143  and  _145
REMARK   47  A    between atoms: _145  and  _146
REMARK   48  A    between atoms: _145  and  _148
REMARK   49  A    between atoms: _148  and  _149
REMARK   50  A    between atoms: _154  and  _156
REMARK   51  A    between atoms: _156  and  _157
REMARK   52  A    between atoms: _156  and  _159
REMARK   53  A    between atoms: _159  and  _160
REMARK   54  A    between atoms: _160  and  _161
REMARK   55  A    between atoms: _164  and  _166
REMARK   56  A    between atoms: _166  and  _167
REMARK   57  A    between atoms: _166  and  _169
REMARK   58  A    between atoms: _169  and  _170
REMARK   59  A    between atoms: _173  and  _175
REMARK   60  A    between atoms: _175  and  _176
REMARK   61  A    between atoms: _175  and  _178
REMARK   62  A    between atoms: _178  and  _179
REMARK   63  A    between atoms: _180  and  ZN_381
REMARK   64  A    between atoms: _184  and  _186
REMARK   65  A    between atoms: _186  and  _187
REMARK   66  A    between atoms: _186  and  _189
REMARK   67  A    between atoms: _189  and  _190
REMARK   68  A    between atoms: _193  and  _195
REMARK   69  A    between atoms: _195  and  _196
REMARK   70  A    between atoms: _195  and  _198
REMARK   71  A    between atoms: _201  and  _203
REMARK   72  A    between atoms: _203  and  _204
REMARK   73  A    between atoms: _203  and  _206
REMARK   74  A    between atoms: _206  and  _207
REMARK   75  A    between atoms: _212  and  _214
REMARK   76  A    between atoms: _214  and  _215
REMARK   77  A    between atoms: _214  and  _217
REMARK   78  A    between atoms: _217  and  _218
REMARK   79  A    between atoms: _224  and  _226
REMARK   80  A    between atoms: _226  and  _227
REMARK   81  A    between atoms: _226  and  _229
REMARK   82  A    between atoms: _232  and  _234
REMARK   83  A    between atoms: _234  and  _235
REMARK   84  A    between atoms: _234  and  _237
REMARK   85  A    between atoms: _237  and  _238
REMARK   86  A    between atoms: _241  and  _243
REMARK   87  A    between atoms: _243  and  _244
REMARK   88  A    between atoms: _247  and  _249
REMARK   89  A    between atoms: _249  and  _250
REMARK   90  A    between atoms: _249  and  _252
REMARK   91  A    between atoms: _255  and  _257
REMARK   92  A    between atoms: _257  and  _258
REMARK   93  A    between atoms: _257  and  _260
REMARK   94  A    between atoms: _260  and  _261
REMARK   95  A    between atoms: _263  and  _265
REMARK   96  A    between atoms: _265  and  _266
REMARK   97  A    between atoms: _265  and  _268
REMARK   98  A    between atoms: _268  and  _269
REMARK   99  A    between atoms: _272  and  _274
REMARK  100  A    between atoms: _274  and  _275
REMARK  101  A    between atoms: _274  and  _277
REMARK  102  A    between atoms: _277  and  _278
REMARK  103  A    between atoms: _281  and  _283
REMARK  104  A    between atoms: _283  and  _284
REMARK  105  A    between atoms: _283  and  _286
REMARK  106  A    between atoms: _286  and  _287
REMARK  107  A    between atoms: _291  and  _292
REMARK  108  A    between atoms: _298  and  _299
REMARK  109  A    between atoms: _304  and  _306
REMARK  110  A    between atoms: _306  and  _307
REMARK  111  A    between atoms: _306  and  _309
REMARK  112  A    between atoms: _309  and  _310
REMARK  113  A    between atoms: _313  and  _315
REMARK  114  A    between atoms: _315  and  _316
REMARK  115  A    between atoms: _315  and  _318
REMARK  116  A    between atoms: _318  and  _319
REMARK  117  A    between atoms: _322  and  _324
REMARK  118  A    between atoms: _324  and  _325
REMARK  119  A    between atoms: _324  and  _327
REMARK  120  A    between atoms: _329  and  _331
REMARK  121  A    between atoms: _331  and  _332
REMARK  122  A    between atoms: _331  and  _334
REMARK  123  A    between atoms: _337  and  _339
REMARK  124  A    between atoms: _339  and  _340
REMARK  125  A    between atoms: _339  and  _342
REMARK  126  A    between atoms: _342  and  _343
REMARK  127  A    between atoms: _353  and  _355
REMARK  128  A    between atoms: _355  and  _356
REMARK  129  A    between atoms: _355  and  _358
REMARK  130  A    between atoms: _358  and  _359
REMARK  131  A    between atoms: _364  and  _366
REMARK  132  A    between atoms: _366  and  _367
REMARK  133  A    between atoms: _366  and  _369
REMARK  134  A    between atoms: _369  and  _370
REMARK  135  A    between atoms: _370  and  _371
REMARK  136  A    between atoms: _371  and  _372
REMARK                            x       y       z     vdW  Elec       q    Type
REMARK                         _______ _______ _______ _____ _____    ______ ____
ROOT
ATOM      1  CA  ALA A   2       8.776   7.853  21.994  0.00  0.00    +0.149 C 
ATOM      2  CB  ALA A   2       7.395   8.290  22.386  0.00  0.00    +0.031 C 
ENDROOT
BRANCH   1   5
ATOM      3  C   LEU A   1      10.574   9.499  22.161  0.00  0.00    +0.238 C 
ATOM      4  O   LEU A   1      10.858   9.213  23.323  0.00  0.00    -0.274 OA
ATOM      5  N   ALA A   2       9.564   8.954  21.479  0.00  0.00    -0.297 N 
ATOM      6  H   ALA A   2       9.333   9.336  20.539  0.00  0.00    +0.150 HD
BRANCH   3   7
ATOM      7  CA  LEU A   1      11.445  10.454  21.372  0.00  0.00    +0.145 C 
BRANCH   7   8
ATOM      8  N   LEU A   1      12.120  11.373  22.282  0.00  0.00    -0.238 NA
ATOM      9  H   LEU A   1      12.694  11.003  23.066  0.00  0.00    +0.142 HD
ENDBRANCH   7   8
BRANCH   7  10
ATOM     10  CB  LEU A   1      12.450   9.622  20.574  0.00  0.00    +0.026 C 
BRANCH  10  11
ATOM     11  CG  LEU A   1      13.430  10.306  19.621  0.00  0.00    +0.002 C 
ATOM     12  CD2 LEU A   1      14.258   9.258  18.852  0.00  0.00    +0.000 C 
ATOM     13  CD1 LEU A   1      12.797  11.306  18.680  0.00  0.00    +0.000 C 
ENDBRANCH  10  11
ENDBRANCH   7  10
ENDBRANCH   3   7
ENDBRANCH   1   5
BRANCH   1  14
ATOM     14  C   ALA A   2       8.747   6.811  20.867  0.00  0.00    +0.241 C 
ATOM     15  N   VAL A   3       9.204   5.584  21.134  0.00  0.00    -0.298 N 
ATOM     16  H   VAL A   3       9.583   5.372  22.079  0.00  0.00    +0.150 HD
ATOM     17  O   ALA A   2       8.370   7.174  19.761  0.00  0.00    -0.273 OA
BRANCH  15  18
ATOM     18  CA  VAL A   3       9.179   4.542  20.122  0.00  0.00    +0.137 C 
BRANCH  18  19
ATOM     19  CB  VAL A   3      10.553   3.961  19.819  0.00  0.00    +0.026 C 
ATOM     20  CG2 VAL A   3      11.516   5.065  19.406  0.00  0.00    +0.002 C 
ATOM     21  CG1 VAL A   3      10.387   2.914  18.714  0.00  0.00    +0.002 C 
ENDBRANCH  18  19
BRANCH  18  22
ATOM     22  C   VAL A   3       8.196   3.472  20.615  0.00  0.00    +0.227 C 
ATOM     23  O   VAL A   3       8.287   2.984  21.751  0.00  0.00    -0.286 OA
ENDBRANCH  18  22
ENDBRANCH  15  18
ENDBRANCH   1  14
TORSDOF 9
REMARK  Name = ../refined-set-2016/3m1k/3m1k_pocket.pdb
REMARK  136 active torsions:
REMARK  status: ('A' for Active; 'I' for Inactive)
REMARK    1  A    between atoms: _1  and  _3
REMARK    2  A    between atoms: _3  and  _4
REMARK    3  A    between atoms: _3  and  _6
REMARK    4  A    between atoms: _6  and  _7
REMARK    5  A    between atoms: _17  and  _19
REMARK    6  A    between atoms: _19  and  _20
REMARK    7  A    between atoms: _19  and  _22
REMARK    8  A    between atoms: _22  and  _23
REMARK    9  A    between atoms: _28  and  _29
REMARK   10  A    between atoms: _31  and  _33
REMARK   11  A    between atoms: _33  and  _34
REMARK   12  A    between atoms: _33  and  _36
REMARK   13  A    between atoms: _36  and  _37
REMARK   14  A    between atoms: _39  and  _41
REMARK   15  A    between atoms: _41  and  _42
REMARK   16  A    between atoms: _41  and  _44
REMARK   17  A    between atoms: _44  and  _45
REMARK   18  A    between atoms: _50  and  _52
REMARK   19  A    between atoms: _52  and  _53
REMARK   20  A    between atoms: _52  and  _55
REMARK   21  A    between atoms: _55  and  _56
REMARK   22  A    between atoms: _61  and  _63
REMARK   23  A    between atoms: _63  and  _64
REMARK   24  A    between atoms: _67  and  _69
REMARK   25  A    between atoms: _69  and  _70
REMARK   26  A    between atoms: _69  and  _72
REMARK   27  A    between atoms: _72  and  _73
REMARK   28  A    between atoms: _78  and  _80
REMARK   29  A    between atoms: _80  and  _81
REMARK   30  A    between atoms: _80  and  _83
REMARK   31  A    between atoms: _83  and  _84
REMARK   32  A    between atoms: _87  and  _89
REMARK   33  A    between atoms: _89  and  _90
REMARK   34  A    between atoms: _89  and  _92
REMARK   35  A    between atoms: _92  and  _93
REMARK   36  A    between atoms: _93  and  _94
REMARK   37  A    between atoms: _99  and  _101
REMARK   38  A    between atoms: _112  and  _115
REMARK   39  A    between atoms: _115  and  _116
REMARK   40  A    between atoms: _124  and  _125
REMARK   41  A    between atoms: _133  and  _135
REMARK   42  A    between atoms: _135  and  _136
REMARK   43  A    between atoms: _135  and  _138
REMARK   44  A    between atoms: _138  and  _139
REMARK   45  A    between atoms: _139  and  _140
REMARK   46  A    between atoms: _143  and  _145
REMARK   47  A    between atoms: _145  and  _146
REMARK   48  A    between atoms: _145  and  _148
REMARK   49  A    between atoms: _148  and  _149
REMARK   50  A    between atoms: _154  and  _156
REMARK   51  A    between atoms: _156  and  _157
REMARK   52  A    between atoms: _156  and  _159
REMARK   53  A    between atoms: _159  and  _160
REMARK   54  A    between atoms: _160  and  _161
REMARK   55  A    between atoms: _164  and  _166
REMARK   56  A    between atoms: _166  and  _167
REMARK   57  A    between atoms: _166  and  _169
REMARK   58  A    between atoms: _169  and  _170
REMARK   59  A    between atoms: _173  and  _175
REMARK   60  A    between atoms: _175  and  _176
REMARK   61  A    between atoms: _175  and  _178
REMARK   62  A    between atoms: _178  and  _179
REMARK   63  A    between atoms: _180  and  ZN_381
REMARK   64  A    between atoms: _184  and  _186
REMARK   65  A    between atoms: _186  and  _187
REMARK   66  A    between atoms: _186  and  _189
REMARK   67  A    between atoms: _189  and  _190
REMARK   68  A    between atoms: _193  and  _195
REMARK   69  A    between atoms: _195  and  _196
REMARK   70  A    between atoms: _195  and  _198
REMARK   71  A    between atoms: _201  and  _203
REMARK   72  A    between atoms: _203  and  _204
REMARK   73  A    between atoms: _203  and  _206
REMARK   74  A    between atoms: _206  and  _207
REMARK   75  A    between atoms: _212  and  _214
REMARK   76  A    between atoms: _214  and  _215
REMARK   77  A    between atoms: _214  and  _217
REMARK   78  A    between atoms: _217  and  _218
REMARK   79  A    between atoms: _224  and  _226
REMARK   80  A    between atoms: _226  and  _227
REMARK   81  A    between atoms: _226  and  _229
REMARK   82  A    between atoms: _232  and  _234
REMARK   83  A    between atoms: _234  and  _235
REMARK   84  A    between atoms: _234  and  _237
REMARK   85  A    between atoms: _237  and  _238
REMARK   86  A    between atoms: _241  and  _243
REMARK   87  A    between atoms: _243  and  _244
REMARK   88  A    between atoms: _247  and  _249
REMARK   89  A    between atoms: _249  and  _250
REMARK   90  A    between atoms: _249  and  _252
REMARK   91  A    between atoms: _255  and  _257
REMARK   92  A    between atoms: _257  and  _258
REMARK   93  A    between atoms: _257  and  _260
REMARK   94  A    between atoms: _260  and  _261
REMARK   95  A    between atoms: _263  and  _265
REMARK   96  A    between atoms: _265  and  _266
REMARK   97  A    between atoms: _265  and  _268
REMARK   98  A    between atoms: _268  and  _269
REMARK   99  A    between atoms: _272  and  _274
REMARK  100  A    between atoms: _274  and  _275
REMARK  101  A    between atoms: _274  and  _277
REMARK  102  A    between atoms: _277  and  _278
REMARK  103  A    between atoms: _281  and  _283
REMARK  104  A    between atoms: _283  and  _284
REMARK  105  A    between atoms: _283  and  _286
REMARK  106  A    between atoms: _286  and  _287
REMARK  107  A    between atoms: _291  and  _292
REMARK  108  A    between atoms: _298  and  _299
REMARK  109  A    between atoms: _304  and  _306
REMARK  110  A    between atoms: _306  and  _307
REMARK  111  A    between atoms: _306  and  _309
REMARK  112  A    between atoms: _309  and  _310
REMARK  113  A    between atoms: _313  and  _315
REMARK  114  A    between atoms: _315  and  _316
REMARK  115  A    between atoms: _315  and  _318
REMARK  116  A    between atoms: _318  and  _319
REMARK  117  A    between atoms: _322  and  _324
REMARK  118  A    between atoms: _324  and  _325
REMARK  119  A    between atoms: _324  and  _327
REMARK  120  A    between atoms: _329  and  _331
REMARK  121  A    between atoms: _331  and  _332
REMARK  122  A    between atoms: _331  and  _334
REMARK  123  A    between atoms: _337  and  _339
REMARK  124  A    between atoms: _339  and  _340
REMARK  125  A    between atoms: _339  and  _342
REMARK  126  A    between atoms: _342  and  _343
REMARK  127  A    between atoms: _353  and  _355
REMARK  128  A    between atoms: _355  and  _356
REMARK  129  A    between atoms: _355  and  _358
REMARK  130  A    between atoms: _358  and  _359
REMARK  131  A    between atoms: _364  and  _366
REMARK  132  A    between atoms: _366  and  _367
REMARK  133  A    between atoms: _366  and  _369
REMARK  134  A    between atoms: _369  and  _370
REMARK  135  A    between atoms: _370  and  _371
REMARK  136  A    between atoms: _371  and  _372
REMARK                            x       y       z     vdW  Elec       q    Type
REMARK                         _______ _______ _______ _____ _____    ______ ____
ROOT
ATOM      1  C   THR A   4      22.048   3.079  16.359  0.00  0.00    +0.246 C 
ATOM      2  O   THR A   4      21.533   4.010  16.986  0.00  0.00    -0.273 OA
ATOM      3  N   PRO A   5      23.306   3.100  15.911  0.00  0.00    -0.272 N 
ATOM      4  CA  PRO A   5      24.107   4.321  15.994  0.00  0.00    +0.152 C 
ATOM      5  CB  PRO A   5      25.325   3.991  15.125  0.00  0.00    +0.031 C 
ATOM      6  CG  PRO A   5      25.483   2.489  15.346  0.00  0.00    +0.024 C 
ATOM      7  CD  PRO A   5      24.047   1.994  15.315  0.00  0.00    +0.094 C 
ENDROOT
BRANCH   4   8
ATOM      8  C   PRO A   5      23.275   5.482  15.457  0.00  0.00    +0.244 C 
ATOM      9  N   PRO A   6      23.276   6.623  16.104  0.00  0.00    -0.272 N 
ATOM     10  CA  PRO A   6      24.163   6.999  17.218  0.00  0.00    +0.152 C 
ATOM     11  CB  PRO A   6      24.171   8.533  17.044  0.00  0.00    +0.031 C 
ATOM     12  CG  PRO A   6      22.830   8.866  16.510  0.00  0.00    +0.024 C 
ATOM     13  CD  PRO A   6      22.419   7.741  15.631  0.00  0.00    +0.094 C 
ATOM     14  O   PRO A   5      22.624   5.294  14.411  0.00  0.00    -0.273 OA
BRANCH  10  15
ATOM     15  C   PRO A   6      23.794   6.571  18.621  0.00  0.00    +0.241 C 
ATOM     16  O   PRO A   6      24.444   7.013  19.606  0.00  0.00    -0.273 OA
ATOM     17  N   LEU A   7      22.803   5.734  18.799  0.00  0.00    -0.297 N 
ATOM     18  H   LEU A   7      22.185   5.526  17.988  0.00  0.00    +0.150 HD
BRANCH  17  19
ATOM     19  CA  LEU A   7      22.513   5.071  20.080  0.00  0.00    +0.149 C 
BRANCH  19  20
ATOM     20  C   LEU A   7      22.149   6.077  21.177  0.00  0.00    +0.241 C 
ATOM     21  O   LEU A   7      22.338   5.874  22.378  0.00  0.00    -0.273 OA
ATOM     22  N   LEU A   8      21.575   7.193  20.743  0.00  0.00    -0.298 N 
ATOM     23  H   LEU A   8      21.332   7.281  19.736  0.00  0.00    +0.150 HD
BRANCH  22  24
ATOM     24  CA  LEU A   8      21.275   8.310  21.657  0.00  0.00    +0.137 C 
BRANCH  24  25
ATOM     25  C   LEU A   8      20.225   7.913  22.691  0.00  0.00    +0.227 C 
ATOM     26  O   LEU A   8      19.240   7.281  22.407  0.00  0.00    -0.286 OA
ENDBRANCH  24  25
BRANCH  24  27
ATOM     27  CB  LEU A   8      20.822   9.558  20.889  0.00  0.00    +0.028 C 
BRANCH  27  28
ATOM     28  CG  LEU A   8      21.896  10.109  19.930  0.00  0.00    +0.002 C 
ATOM     29  CD2 LEU A   8      23.048  10.711  20.728  0.00  0.00    +0.000 C 
ATOM     30  CD1 LEU A   8      21.322  11.160  19.017  0.00  0.00    +0.000 C 
ENDBRANCH  27  28
ENDBRANCH  24  27
ENDBRANCH  22  24
ENDBRANCH  19  20
BRANCH  19  31
ATOM     31  CB  LEU A   7      23.645   4.164  20.555  0.00  0.00    +0.029 C 
BRANCH  31  32
ATOM     32  CG  LEU A   7      24.029   3.040  19.593  0.00  0.00    +0.002 C 
ATOM     33  CD2 LEU A   7      25.360   2.417  19.962  0.00  0.00    +0.000 C 
ATOM     34  CD1 LEU A   7      22.935   1.981  19.542  0.00  0.00    +0.000 C 
ENDBRANCH  31  32
ENDBRANCH  19  31
ENDBRANCH  17  19
ENDBRANCH  10  15
ENDBRANCH   4   8
BRANCH   1  35
ATOM     35  CA  THR A   4      21.201   1.847  16.068  0.00  0.00    +0.176 C 
BRANCH  35  38
ATOM     36  C   THR A   3      20.009   0.617  17.818  0.00  0.00    +0.243 C 
ATOM     37  O   THR A   3      20.643  -0.435  17.703  0.00  0.00    -0.273 OA
ATOM     38  N   THR A   4      20.166   1.692  17.082  0.00  0.00    -0.295 N 
ATOM     39  H   THR A   4      19.509   2.484  17.232  0.00  0.00    +0.150 HD
BRANCH  36  40
ATOM     40  CA  THR A   3      19.005   0.724  18.947  0.00  0.00    +0.176 C 
BRANCH  40  43
ATOM     41  C   LEU A   2      18.722   2.954  19.809  0.00  0.00    +0.241 C 
ATOM     42  O   LEU A   2      19.713   2.847  20.543  0.00  0.00    -0.273 OA
ATOM     43  N   THR A   3      18.306   2.011  18.983  0.00  0.00    -0.295 N 
ATOM     44  H   THR A   3      17.489   2.181  18.363  0.00  0.00    +0.150 HD
BRANCH  41  45
ATOM     45  CA  LEU A   2      17.967   4.297  19.761  0.00  0.00    +0.149 C 
BRANCH  45  48
ATOM     46  C   SER A   1      17.482   4.148  22.139  0.00  0.00    +0.241 C 
ATOM     47  O   SER A   1      16.719   3.218  21.981  0.00  0.00    -0.274 OA
ATOM     48  N   LEU A   2      18.003   4.818  21.111  0.00  0.00    -0.297 N 
ATOM     49  H   LEU A   2      18.448   5.742  21.284  0.00  0.00    +0.150 HD
BRANCH  46  50
ATOM     50  CA  SER A   1      17.979   4.630  23.512  0.00  0.00    +0.174 C 
BRANCH  50  51
ATOM     51  N   SER A   1      17.214   4.073  24.612  0.00  0.00    -0.236 NA
ATOM     52  H   SER A   1      17.018   3.053  24.563  0.00  0.00    +0.142 HD
ENDBRANCH  50  51
BRANCH  50  53
ATOM     53  CB  SER A   1      19.463   4.282  23.667  0.00  0.00    +0.163 C 
BRANCH  53  54
ATOM     54  OG  SER A   1      19.678   2.902  23.290  0.00  0.00    -0.380 OA
ATOM     55  H   SER A   1      19.405   2.772  22.347  0.00  0.00    +0.211 HD
ENDBRANCH  53  54
ENDBRANCH  50  53
ENDBRANCH  46  50
ENDBRANCH  45  48
BRANCH  45  56
ATOM     56  CB  LEU A   2      18.689   5.203  18.784  0.00  0.00    +0.029 C 
BRANCH  56  57
ATOM     57  CG  LEU A   2      18.362   6.697  18.760  0.00  0.00    +0.002 C 
ATOM     58  CD2 LEU A   2      16.898   6.944  18.604  0.00  0.00    +0.000 C 
ATOM     59  CD1 LEU A   2      19.160   7.332  17.598  0.00  0.00    +0.000 C 
ENDBRANCH  56  57
ENDBRANCH  45  56
ENDBRANCH  41  45
ENDBRANCH  40  43
BRANCH  40  60
ATOM     60  CB  THR A   3      18.043  -0.473  18.891  0.00  0.00    +0.137 C 
ATOM     61  CG2 THR A   3      17.014  -0.455  20.018  0.00  0.00    +0.034 C 
BRANCH  60  62
ATOM     62  OG1 THR A   3      17.372  -0.415  17.610  0.00  0.00    -0.382 OA
ATOM     63  HG1 THR A   3      16.740  -1.174  17.535  0.00  0.00    +0.210 HD
ENDBRANCH  60  62
ENDBRANCH  40  60
ENDBRANCH  36  40
ENDBRANCH  35  38
BRANCH  35  64
ATOM     64  CB  THR A   4      20.562   1.992  14.682  0.00  0.00    +0.137 C 
ATOM     65  CG2 THR A   4      20.007   0.672  14.172  0.00  0.00    +0.034 C 
BRANCH  64  66
ATOM     66  OG1 THR A   4      19.498   2.951  14.747  0.00  0.00    -0.382 OA
ATOM     67  HG1 THR A   4      19.860   3.825  15.038  0.00  0.00    +0.210 HD
ENDBRANCH  64  66
ENDBRANCH  35  64
ENDBRANCH   1  35
TORSDOF 26
REMARK  Name = ../refined-set-2016/3m1k/3m1k_pocket.pdb
REMARK  136 active torsions:
REMARK  status: ('A' for Active; 'I' for Inactive)
REMARK    1  A    between atoms: _1  and  _3
REMARK    2  A    between atoms: _3  and  _4
REMARK    3  A    between atoms: _3  and  _6
REMARK    4  A    between atoms: _6  and  _7
REMARK    5  A    between atoms: _17  and  _19
REMARK    6  A    between atoms: _19  and  _20
REMARK    7  A    between atoms: _19  and  _22
REMARK    8  A    between atoms: _22  and  _23
REMARK    9  A    between atoms: _28  and  _29
REMARK   10  A    between atoms: _31  and  _33
REMARK   11  A    between atoms: _33  and  _34
REMARK   12  A    between atoms: _33  and  _36
REMARK   13  A    between atoms: _36  and  _37
REMARK   14  A    between atoms: _39  and  _41
REMARK   15  A    between atoms: _41  and  _42
REMARK   16  A    between atoms: _41  and  _44
REMARK   17  A    between atoms: _44  and  _45
REMARK   18  A    between atoms: _50  and  _52
REMARK   19  A    between atoms: _52  and  _53
REMARK   20  A    between atoms: _52  and  _55
REMARK   21  A    between atoms: _55  and  _56
REMARK   22  A    between atoms: _61  and  _63
REMARK   23  A    between atoms: _63  and  _64
REMARK   24  A    between atoms: _67  and  _69
REMARK   25  A    between atoms: _69  and  _70
REMARK   26  A    between atoms: _69  and  _72
REMARK   27  A    between atoms: _72  and  _73
REMARK   28  A    between atoms: _78  and  _80
REMARK   29  A    between atoms: _80  and  _81
REMARK   30  A    between atoms: _80  and  _83
REMARK   31  A    between atoms: _83  and  _84
REMARK   32  A    between atoms: _87  and  _89
REMARK   33  A    between atoms: _89  and  _90
REMARK   34  A    between atoms: _89  and  _92
REMARK   35  A    between atoms: _92  and  _93
REMARK   36  A    between atoms: _93  and  _94
REMARK   37  A    between atoms: _99  and  _101
REMARK   38  A    between atoms: _112  and  _115
REMARK   39  A    between atoms: _115  and  _116
REMARK   40  A    between atoms: _124  and  _125
REMARK   41  A    between atoms: _133  and  _135
REMARK   42  A    between atoms: _135  and  _136
REMARK   43  A    between atoms: _135  and  _138
REMARK   44  A    between atoms: _138  and  _139
REMARK   45  A    between atoms: _139  and  _140
REMARK   46  A    between atoms: _143  and  _145
REMARK   47  A    between atoms: _145  and  _146
REMARK   48  A    between atoms: _145  and  _148
REMARK   49  A    between atoms: _148  and  _149
REMARK   50  A    between atoms: _154  and  _156
REMARK   51  A    between atoms: _156  and  _157
REMARK   52  A    between atoms: _156  and  _159
REMARK   53  A    between atoms: _159  and  _160
REMARK   54  A    between atoms: _160  and  _161
REMARK   55  A    between atoms: _164  and  _166
REMARK   56  A    between atoms: _166  and  _167
REMARK   57  A    between atoms: _166  and  _169
REMARK   58  A    between atoms: _169  and  _170
REMARK   59  A    between atoms: _173  and  _175
REMARK   60  A    between atoms: _175  and  _176
REMARK   61  A    between atoms: _175  and  _178
REMARK   62  A    between atoms: _178  and  _179
REMARK   63  A    between atoms: _180  and  ZN_381
REMARK   64  A    between atoms: _184  and  _186
REMARK   65  A    between atoms: _186  and  _187
REMARK   66  A    between atoms: _186  and  _189
REMARK   67  A    between atoms: _189  and  _190
REMARK   68  A    between atoms: _193  and  _195
REMARK   69  A    between atoms: _195  and  _196
REMARK   70  A    between atoms: _195  and  _198
REMARK   71  A    between atoms: _201  and  _203
REMARK   72  A    between atoms: _203  and  _204
REMARK   73  A    between atoms: _203  and  _206
REMARK   74  A    between atoms: _206  and  _207
REMARK   75  A    between atoms: _212  and  _214
REMARK   76  A    between atoms: _214  and  _215
REMARK   77  A    between atoms: _214  and  _217
REMARK   78  A    between atoms: _217  and  _218
REMARK   79  A    between atoms: _224  and  _226
REMARK   80  A    between atoms: _226  and  _227
REMARK   81  A    between atoms: _226  and  _229
REMARK   82  A    between atoms: _232  and  _234
REMARK   83  A    between atoms: _234  and  _235
REMARK   84  A    between atoms: _234  and  _237
REMARK   85  A    between atoms: _237  and  _238
REMARK   86  A    between atoms: _241  and  _243
REMARK   87  A    between atoms: _243  and  _244
REMARK   88  A    between atoms: _247  and  _249
REMARK   89  A    between atoms: _249  and  _250
REMARK   90  A    between atoms: _249  and  _252
REMARK   91  A    between atoms: _255  and  _257
REMARK   92  A    between atoms: _257  and  _258
REMARK   93  A    between atoms: _257  and  _260
REMARK   94  A    between atoms: _260  and  _261
REMARK   95  A    between atoms: _263  and  _265
REMARK   96  A    between atoms: _265  and  _266
REMARK   97  A    between atoms: _265  and  _268
REMARK   98  A    between atoms: _268  and  _269
REMARK   99  A    between atoms: _272  and  _274
REMARK  100  A    between atoms: _274  and  _275
REMARK  101  A    between atoms: _274  and  _277
REMARK  102  A    between atoms: _277  and  _278
REMARK  103  A    between atoms: _281  and  _283
REMARK  104  A    between atoms: _283  and  _284
REMARK  105  A    between atoms: _283  and  _286
REMARK  106  A    between atoms: _286  and  _287
REMARK  107  A    between atoms: _291  and  _292
REMARK  108  A    between atoms: _298  and  _299
REMARK  109  A    between atoms: _304  and  _306
REMARK  110  A    between atoms: _306  and  _307
REMARK  111  A    between atoms: _306  and  _309
REMARK  112  A    between atoms: _309  and  _310
REMARK  113  A    between atoms: _313  and  _315
REMARK  114  A    between atoms: _315  and  _316
REMARK  115  A    between atoms: _315  and  _318
REMARK  116  A    between atoms: _318  and  _319
REMARK  117  A    between atoms: _322  and  _324
REMARK  118  A    between atoms: _324  and  _325
REMARK  119  A    between atoms: _324  and  _327
REMARK  120  A    between atoms: _329  and  _331
REMARK  121  A    between atoms: _331  and  _332
REMARK  122  A    between atoms: _331  and  _334
REMARK  123  A    between atoms: _337  and  _339
REMARK  124  A    between atoms: _339  and  _340
REMARK  125  A    between atoms: _339  and  _342
REMARK  126  A    between atoms: _342  and  _343
REMARK  127  A    between atoms: _353  and  _355
REMARK  128  A    between atoms: _355  and  _356
REMARK  129  A    between atoms: _355  and  _358
REMARK  130  A    between atoms: _358  and  _359
REMARK  131  A    between atoms: _364  and  _366
REMARK  132  A    between atoms: _366  and  _367
REMARK  133  A    between atoms: _366  and  _369
REMARK  134  A    between atoms: _369  and  _370
REMARK  135  A    between atoms: _370  and  _371
REMARK  136  A    between atoms: _371  and  _372
REMARK                            x       y       z     vdW  Elec       q    Type
REMARK                         _______ _______ _______ _____ _____    ______ ____
ROOT
ATOM      1  C   CYS A   1      15.108   9.325  24.083  0.00  0.00    +0.239 C 
ATOM      2  N   VAL A   2      14.992   8.021  24.308  0.00  0.00    -0.298 N 
ATOM      3  H   VAL A   2      15.786   7.484  24.711  0.00  0.00    +0.150 HD
ATOM      4  O   CYS A   1      14.161  10.072  23.779  0.00  0.00    -0.274 OA
ENDROOT
BRANCH   1   5
ATOM      5  CA  CYS A   1      16.490   9.934  24.192  0.00  0.00    +0.156 C 
BRANCH   5   6
ATOM      6  N   CYS A   1      17.572   8.979  24.346  0.00  0.00    -0.237 NA
ATOM      7  H   CYS A   1      17.613   8.218  23.638  0.00  0.00    +0.142 HD
ENDBRANCH   5   6
BRANCH   5   8
ATOM      8  CB  CYS A   1      16.750  10.783  22.936  0.00  0.00    +0.095 C 
ATOM      9  SG  CYS A   1      16.801   9.839  21.393  0.00  0.00    -0.080 S 
ENDBRANCH   5   8
ENDBRANCH   1   5
BRANCH   2  10
ATOM     10  CA  VAL A   2      13.741   7.352  23.984  0.00  0.00    +0.137 C 
BRANCH  10  11
ATOM     11  CB  VAL A   2      14.026   6.097  23.105  0.00  0.00    +0.026 C 
ATOM     12  CG2 VAL A   2      12.750   5.374  22.750  0.00  0.00    +0.002 C 
ATOM     13  CG1 VAL A   2      14.791   6.434  21.821  0.00  0.00    +0.002 C 
ENDBRANCH  10  11
BRANCH  10  14
ATOM     14  C   VAL A   2      12.965   6.900  25.192  0.00  0.00    +0.227 C 
ATOM     15  O   VAL A   2      13.503   6.244  26.083  0.00  0.00    -0.286 OA
ENDBRANCH  10  14
ENDBRANCH   2  10
TORSDOF 6
REMARK  Name = ../refined-set-2016/3m1k/3m1k_pocket.pdb
REMARK  136 active torsions:
REMARK  status: ('A' for Active; 'I' for Inactive)
REMARK    1  A    between atoms: _1  and  _3
REMARK    2  A    between atoms: _3  and  _4
REMARK    3  A    between atoms: _3  and  _6
REMARK    4  A    between atoms: _6  and  _7
REMARK    5  A    between atoms: _17  and  _19
REMARK    6  A    between atoms: _19  and  _20
REMARK    7  A    between atoms: _19  and  _22
REMARK    8  A    between atoms: _22  and  _23
REMARK    9  A    between atoms: _28  and  _29
REMARK   10  A    between atoms: _31  and  _33
REMARK   11  A    between atoms: _33  and  _34
REMARK   12  A    between atoms: _33  and  _36
REMARK   13  A    between atoms: _36  and  _37
REMARK   14  A    between atoms: _39  and  _41
REMARK   15  A    between atoms: _41  and  _42
REMARK   16  A    between atoms: _41  and  _44
REMARK   17  A    between atoms: _44  and  _45
REMARK   18  A    between atoms: _50  and  _52
REMARK   19  A    between atoms: _52  and  _53
REMARK   20  A    between atoms: _52  and  _55
REMARK   21  A    between atoms: _55  and  _56
REMARK   22  A    between atoms: _61  and  _63
REMARK   23  A    between atoms: _63  and  _64
REMARK   24  A    between atoms: _67  and  _69
REMARK   25  A    between atoms: _69  and  _70
REMARK   26  A    between atoms: _69  and  _72
REMARK   27  A    between atoms: _72  and  _73
REMARK   28  A    between atoms: _78  and  _80
REMARK   29  A    between atoms: _80  and  _81
REMARK   30  A    between atoms: _80  and  _83
REMARK   31  A    between atoms: _83  and  _84
REMARK   32  A    between atoms: _87  and  _89
REMARK   33  A    between atoms: _89  and  _90
REMARK   34  A    between atoms: _89  and  _92
REMARK   35  A    between atoms: _92  and  _93
REMARK   36  A    between atoms: _93  and  _94
REMARK   37  A    between atoms: _99  and  _101
REMARK   38  A    between atoms: _112  and  _115
REMARK   39  A    between atoms: _115  and  _116
REMARK   40  A    between atoms: _124  and  _125
REMARK   41  A    between atoms: _133  and  _135
REMARK   42  A    between atoms: _135  and  _136
REMARK   43  A    between atoms: _135  and  _138
REMARK   44  A    between atoms: _138  and  _139
REMARK   45  A    between atoms: _139  and  _140
REMARK   46  A    between atoms: _143  and  _145
REMARK   47  A    between atoms: _145  and  _146
REMARK   48  A    between atoms: _145  and  _148
REMARK   49  A    between atoms: _148  and  _149
REMARK   50  A    between atoms: _154  and  _156
REMARK   51  A    between atoms: _156  and  _157
REMARK   52  A    between atoms: _156  and  _159
REMARK   53  A    between atoms: _159  and  _160
REMARK   54  A    between atoms: _160  and  _161
REMARK   55  A    between atoms: _164  and  _166
REMARK   56  A    between atoms: _166  and  _167
REMARK   57  A    between atoms: _166  and  _169
REMARK   58  A    between atoms: _169  and  _170
REMARK   59  A    between atoms: _173  and  _175
REMARK   60  A    between atoms: _175  and  _176
REMARK   61  A    between atoms: _175  and  _178
REMARK   62  A    between atoms: _178  and  _179
REMARK   63  A    between atoms: _180  and  ZN_381
REMARK   64  A    between atoms: _184  and  _186
REMARK   65  A    between atoms: _186  and  _187
REMARK   66  A    between atoms: _186  and  _189
REMARK   67  A    between atoms: _189  and  _190
REMARK   68  A    between atoms: _193  and  _195
REMARK   69  A    between atoms: _195  and  _196
REMARK   70  A    between atoms: _195  and  _198
REMARK   71  A    between atoms: _201  and  _203
REMARK   72  A    between atoms: _203  and  _204
REMARK   73  A    between atoms: _203  and  _206
REMARK   74  A    between atoms: _206  and  _207
REMARK   75  A    between atoms: _212  and  _214
REMARK   76  A    between atoms: _214  and  _215
REMARK   77  A    between atoms: _214  and  _217
REMARK   78  A    between atoms: _217  and  _218
REMARK   79  A    between atoms: _224  and  _226
REMARK   80  A    between atoms: _226  and  _227
REMARK   81  A    between atoms: _226  and  _229
REMARK   82  A    between atoms: _232  and  _234
REMARK   83  A    between atoms: _234  and  _235
REMARK   84  A    between atoms: _234  and  _237
REMARK   85  A    between atoms: _237  and  _238
REMARK   86  A    between atoms: _241  and  _243
REMARK   87  A    between atoms: _243  and  _244
REMARK   88  A    between atoms: _247  and  _249
REMARK   89  A    between atoms: _249  and  _250
REMARK   90  A    between atoms: _249  and  _252
REMARK   91  A    between atoms: _255  and  _257
REMARK   92  A    between atoms: _257  and  _258
REMARK   93  A    between atoms: _257  and  _260
REMARK   94  A    between atoms: _260  and  _261
REMARK   95  A    between atoms: _263  and  _265
REMARK   96  A    between atoms: _265  and  _266
REMARK   97  A    between atoms: _265  and  _268
REMARK   98  A    between atoms: _268  and  _269
REMARK   99  A    between atoms: _272  and  _274
REMARK  100  A    between atoms: _274  and  _275
REMARK  101  A    between atoms: _274  and  _277
REMARK  102  A    between atoms: _277  and  _278
REMARK  103  A    between atoms: _281  and  _283
REMARK  104  A    between atoms: _283  and  _284
REMARK  105  A    between atoms: _283  and  _286
REMARK  106  A    between atoms: _286  and  _287
REMARK  107  A    between atoms: _291  and  _292
REMARK  108  A    between atoms: _298  and  _299
REMARK  109  A    between atoms: _304  and  _306
REMARK  110  A    between atoms: _306  and  _307
REMARK  111  A    between atoms: _306  and  _309
REMARK  112  A    between atoms: _309  and  _310
REMARK  113  A    between atoms: _313  and  _315
REMARK  114  A    between atoms: _315  and  _316
REMARK  115  A    between atoms: _315  and  _318
REMARK  116  A    between atoms: _318  and  _319
REMARK  117  A    between atoms: _322  and  _324
REMARK  118  A    between atoms: _324  and  _325
REMARK  119  A    between atoms: _324  and  _327
REMARK  120  A    between atoms: _329  and  _331
REMARK  121  A    between atoms: _331  and  _332
REMARK  122  A    between atoms: _331  and  _334
REMARK  123  A    between atoms: _337  and  _339
REMARK  124  A    between atoms: _339  and  _340
REMARK  125  A    between atoms: _339  and  _342
REMARK  126  A    between atoms: _342  and  _343
REMARK  127  A    between atoms: _353  and  _355
REMARK  128  A    between atoms: _355  and  _356
REMARK  129  A    between atoms: _355  and  _358
REMARK  130  A    between atoms: _358  and  _359
REMARK  131  A    between atoms: _364  and  _366
REMARK  132  A    between atoms: _366  and  _367
REMARK  133  A    between atoms: _366  and  _369
REMARK  134  A    between atoms: _369  and  _370
REMARK  135  A    between atoms: _370  and  _371
REMARK  136  A    between atoms: _371  and  _372
REMARK                            x       y       z     vdW  Elec       q    Type
REMARK                         _______ _______ _______ _____ _____    ______ ____
ROOT
ATOM      1  CG  TRP A   1      12.249   1.889  24.236  0.00  0.00    -0.002 A 
ATOM      2  CD1 TRP A   1      13.468   2.450  24.429  0.00  0.00    +0.068 A 
ATOM      3  NE1 TRP A   1      14.193   2.403  23.274  0.00  0.00    -0.352 N 
ATOM      4  HE1 TRP A   1      15.156   2.775  23.148  0.00  0.00    +0.166 HD
ATOM      5  CE2 TRP A   1      13.452   1.793  22.319  0.00  0.00    +0.056 A 
ATOM      6  CZ2 TRP A   1      13.730   1.496  20.996  0.00  0.00    +0.017 A 
ATOM      7  CH2 TRP A   1      12.758   0.872  20.257  0.00  0.00    +0.001 A 
ATOM      8  CZ3 TRP A   1      11.519   0.521  20.781  0.00  0.00    +0.000 A 
ATOM      9  CE3 TRP A   1      11.240   0.805  22.078  0.00  0.00    +0.001 A 
ATOM     10  CD2 TRP A   1      12.191   1.453  22.874  0.00  0.00    +0.013 A 
ENDROOT
BRANCH   1  11
ATOM     11  CB  TRP A   1      11.153   1.770  25.255  0.00  0.00    +0.053 C 
BRANCH  11  12
ATOM     12  CA  TRP A   1      10.126   2.922  25.006  0.00  0.00    +0.137 C 
BRANCH  12  13
ATOM     13  N   TRP A   1      10.577   4.128  25.703  0.00  0.00    -0.239 NA
ATOM     14  H   TRP A   1      11.193   4.040  26.537  0.00  0.00    +0.142 HD
ENDBRANCH  12  13
BRANCH  12  15
ATOM     15  C   TRP A   1       8.750   2.520  25.450  0.00  0.00    +0.224 C 
ATOM     16  O   TRP A   1       8.511   2.476  26.667  0.00  0.00    -0.287 OA
ENDBRANCH  12  15
ENDBRANCH  11  12
ENDBRANCH   1  11
TORSDOF 4
REMARK  Name = ../refined-set-2016/3m1k/3m1k_pocket.pdb
REMARK  136 active torsions:
REMARK  status: ('A' for Active; 'I' for Inactive)
REMARK    1  A    between atoms: _1  and  _3
REMARK    2  A    between atoms: _3  and  _4
REMARK    3  A    between atoms: _3  and  _6
REMARK    4  A    between atoms: _6  and  _7
REMARK    5  A    between atoms: _17  and  _19
REMARK    6  A    between atoms: _19  and  _20
REMARK    7  A    between atoms: _19  and  _22
REMARK    8  A    between atoms: _22  and  _23
REMARK    9  A    between atoms: _28  and  _29
REMARK   10  A    between atoms: _31  and  _33
REMARK   11  A    between atoms: _33  and  _34
REMARK   12  A    between atoms: _33  and  _36
REMARK   13  A    between atoms: _36  and  _37
REMARK   14  A    between atoms: _39  and  _41
REMARK   15  A    between atoms: _41  and  _42
REMARK   16  A    between atoms: _41  and  _44
REMARK   17  A    between atoms: _44  and  _45
REMARK   18  A    between atoms: _50  and  _52
REMARK   19  A    between atoms: _52  and  _53
REMARK   20  A    between atoms: _52  and  _55
REMARK   21  A    between atoms: _55  and  _56
REMARK   22  A    between atoms: _61  and  _63
REMARK   23  A    between atoms: _63  and  _64
REMARK   24  A    between atoms: _67  and  _69
REMARK   25  A    between atoms: _69  and  _70
REMARK   26  A    between atoms: _69  and  _72
REMARK   27  A    between atoms: _72  and  _73
REMARK   28  A    between atoms: _78  and  _80
REMARK   29  A    between atoms: _80  and  _81
REMARK   30  A    between atoms: _80  and  _83
REMARK   31  A    between atoms: _83  and  _84
REMARK   32  A    between atoms: _87  and  _89
REMARK   33  A    between atoms: _89  and  _90
REMARK   34  A    between atoms: _89  and  _92
REMARK   35  A    between atoms: _92  and  _93
REMARK   36  A    between atoms: _93  and  _94
REMARK   37  A    between atoms: _99  and  _101
REMARK   38  A    between atoms: _112  and  _115
REMARK   39  A    between atoms: _115  and  _116
REMARK   40  A    between atoms: _124  and  _125
REMARK   41  A    between atoms: _133  and  _135
REMARK   42  A    between atoms: _135  and  _136
REMARK   43  A    between atoms: _135  and  _138
REMARK   44  A    between atoms: _138  and  _139
REMARK   45  A    between atoms: _139  and  _140
REMARK   46  A    between atoms: _143  and  _145
REMARK   47  A    between atoms: _145  and  _146
REMARK   48  A    between atoms: _145  and  _148
REMARK   49  A    between atoms: _148  and  _149
REMARK   50  A    between atoms: _154  and  _156
REMARK   51  A    between atoms: _156  and  _157
REMARK   52  A    between atoms: _156  and  _159
REMARK   53  A    between atoms: _159  and  _160
REMARK   54  A    between atoms: _160  and  _161
REMARK   55  A    between atoms: _164  and  _166
REMARK   56  A    between atoms: _166  and  _167
REMARK   57  A    between atoms: _166  and  _169
REMARK   58  A    between atoms: _169  and  _170
REMARK   59  A    between atoms: _173  and  _175
REMARK   60  A    between atoms: _175  and  _176
REMARK   61  A    between atoms: _175  and  _178
REMARK   62  A    between atoms: _178  and  _179
REMARK   63  A    between atoms: _180  and  ZN_381
REMARK   64  A    between atoms: _184  and  _186
REMARK   65  A    between atoms: _186  and  _187
REMARK   66  A    between atoms: _186  and  _189
REMARK   67  A    between atoms: _189  and  _190
REMARK   68  A    between atoms: _193  and  _195
REMARK   69  A    between atoms: _195  and  _196
REMARK   70  A    between atoms: _195  and  _198
REMARK   71  A    between atoms: _201  and  _203
REMARK   72  A    between atoms: _203  and  _204
REMARK   73  A    between atoms: _203  and  _206
REMARK   74  A    between atoms: _206  and  _207
REMARK   75  A    between atoms: _212  and  _214
REMARK   76  A    between atoms: _214  and  _215
REMARK   77  A    between atoms: _214  and  _217
REMARK   78  A    between atoms: _217  and  _218
REMARK   79  A    between atoms: _224  and  _226
REMARK   80  A    between atoms: _226  and  _227
REMARK   81  A    between atoms: _226  and  _229
REMARK   82  A    between atoms: _232  and  _234
REMARK   83  A    between atoms: _234  and  _235
REMARK   84  A    between atoms: _234  and  _237
REMARK   85  A    between atoms: _237  and  _238
REMARK   86  A    between atoms: _241  and  _243
REMARK   87  A    between atoms: _243  and  _244
REMARK   88  A    between atoms: _247  and  _249
REMARK   89  A    between atoms: _249  and  _250
REMARK   90  A    between atoms: _249  and  _252
REMARK   91  A    between atoms: _255  and  _257
REMARK   92  A    between atoms: _257  and  _258
REMARK   93  A    between atoms: _257  and  _260
REMARK   94  A    between atoms: _260  and  _261
REMARK   95  A    between atoms: _263  and  _265
REMARK   96  A    between atoms: _265  and  _266
REMARK   97  A    between atoms: _265  and  _268
REMARK   98  A    between atoms: _268  and  _269
REMARK   99  A    between atoms: _272  and  _274
REMARK  100  A    between atoms: _274  and  _275
REMARK  101  A    between atoms: _274  and  _277
REMARK  102  A    between atoms: _277  and  _278
REMARK  103  A    between atoms: _281  and  _283
REMARK  104  A    between atoms: _283  and  _284
REMARK  105  A    between atoms: _283  and  _286
REMARK  106  A    between atoms: _286  and  _287
REMARK  107  A    between atoms: _291  and  _292
REMARK  108  A    between atoms: _298  and  _299
REMARK  109  A    between atoms: _304  and  _306
REMARK  110  A    between atoms: _306  and  _307
REMARK  111  A    between atoms: _306  and  _309
REMARK  112  A    between atoms: _309  and  _310
REMARK  113  A    between atoms: _313  and  _315
REMARK  114  A    between atoms: _315  and  _316
REMARK  115  A    between atoms: _315  and  _318
REMARK  116  A    between atoms: _318  and  _319
REMARK  117  A    between atoms: _322  and  _324
REMARK  118  A    between atoms: _324  and  _325
REMARK  119  A    between atoms: _324  and  _327
REMARK  120  A    between atoms: _329  and  _331
REMARK  121  A    between atoms: _331  and  _332
REMARK  122  A    between atoms: _331  and  _334
REMARK  123  A    between atoms: _337  and  _339
REMARK  124  A    between atoms: _339  and  _340
REMARK  125  A    between atoms: _339  and  _342
REMARK  126  A    between atoms: _342  and  _343
REMARK  127  A    between atoms: _353  and  _355
REMARK  128  A    between atoms: _355  and  _356
REMARK  129  A    between atoms: _355  and  _358
REMARK  130  A    between atoms: _358  and  _359
REMARK  131  A    between atoms: _364  and  _366
REMARK  132  A    between atoms: _366  and  _367
REMARK  133  A    between atoms: _366  and  _369
REMARK  134  A    between atoms: _369  and  _370
REMARK  135  A    between atoms: _370  and  _371
REMARK  136  A    between atoms: _371  and  _372
REMARK                            x       y       z     vdW  Elec       q    Type
REMARK                         _______ _______ _______ _____ _____    ______ ____
ROOT
ATOM      1  CB  ASN A   1      19.098  -5.482  10.441  0.00  0.00    +0.110 C 
ENDROOT
BRANCH   1   2
ATOM      2  CG  ASN A   1      17.626  -5.673  10.224  0.00  0.00    +0.221 C 
ATOM      3  OD1 ASN A   1      16.949  -6.543  10.743  0.00  0.00    -0.275 OA
ATOM      4  ND2 ASN A   1      17.083  -4.772   9.402  0.00  0.00    -0.329 N 
ATOM      5 HD21 ASN A   1      16.064  -4.805   9.194  0.00  0.00    +0.145 HD
ATOM      6 HD22 ASN A   1      17.679  -4.037   8.969  0.00  0.00    +0.145 HD
ENDBRANCH   1   2
BRANCH   1   7
ATOM      7  CA  ASN A   1      19.613  -6.356  11.595  0.00  0.00    +0.142 C 
BRANCH   7   8
ATOM      8  N   ASN A   1      19.335  -7.768  11.316  0.00  0.00    -0.239 NA
ATOM      9  H   ASN A   1      18.453  -8.026  10.829  0.00  0.00    +0.142 HD
ENDBRANCH   7   8
BRANCH   7  10
ATOM     10  C   ASN A   1      19.052  -5.919  12.953  0.00  0.00    +0.225 C 
ATOM     11  O   ASN A   1      18.337  -4.907  13.097  0.00  0.00    -0.287 OA
ENDBRANCH   7  10
ENDBRANCH   1   7
TORSDOF 4
REMARK  Name = ../refined-set-2016/3m1k/3m1k_pocket.pdb
REMARK  136 active torsions:
REMARK  status: ('A' for Active; 'I' for Inactive)
REMARK    1  A    between atoms: _1  and  _3
REMARK    2  A    between atoms: _3  and  _4
REMARK    3  A    between atoms: _3  and  _6
REMARK    4  A    between atoms: _6  and  _7
REMARK    5  A    between atoms: _17  and  _19
REMARK    6  A    between atoms: _19  and  _20
REMARK    7  A    between atoms: _19  and  _22
REMARK    8  A    between atoms: _22  and  _23
REMARK    9  A    between atoms: _28  and  _29
REMARK   10  A    between atoms: _31  and  _33
REMARK   11  A    between atoms: _33  and  _34
REMARK   12  A    between atoms: _33  and  _36
REMARK   13  A    between atoms: _36  and  _37
REMARK   14  A    between atoms: _39  and  _41
REMARK   15  A    between atoms: _41  and  _42
REMARK   16  A    between atoms: _41  and  _44
REMARK   17  A    between atoms: _44  and  _45
REMARK   18  A    between atoms: _50  and  _52
REMARK   19  A    between atoms: _52  and  _53
REMARK   20  A    between atoms: _52  and  _55
REMARK   21  A    between atoms: _55  and  _56
REMARK   22  A    between atoms: _61  and  _63
REMARK   23  A    between atoms: _63  and  _64
REMARK   24  A    between atoms: _67  and  _69
REMARK   25  A    between atoms: _69  and  _70
REMARK   26  A    between atoms: _69  and  _72
REMARK   27  A    between atoms: _72  and  _73
REMARK   28  A    between atoms: _78  and  _80
REMARK   29  A    between atoms: _80  and  _81
REMARK   30  A    between atoms: _80  and  _83
REMARK   31  A    between atoms: _83  and  _84
REMARK   32  A    between atoms: _87  and  _89
REMARK   33  A    between atoms: _89  and  _90
REMARK   34  A    between atoms: _89  and  _92
REMARK   35  A    between atoms: _92  and  _93
REMARK   36  A    between atoms: _93  and  _94
REMARK   37  A    between atoms: _99  and  _101
REMARK   38  A    between atoms: _112  and  _115
REMARK   39  A    between atoms: _115  and  _116
REMARK   40  A    between atoms: _124  and  _125
REMARK   41  A    between atoms: _133  and  _135
REMARK   42  A    between atoms: _135  and  _136
REMARK   43  A    between atoms: _135  and  _138
REMARK   44  A    between atoms: _138  and  _139
REMARK   45  A    between atoms: _139  and  _140
REMARK   46  A    between atoms: _143  and  _145
REMARK   47  A    between atoms: _145  and  _146
REMARK   48  A    between atoms: _145  and  _148
REMARK   49  A    between atoms: _148  and  _149
REMARK   50  A    between atoms: _154  and  _156
REMARK   51  A    between atoms: _156  and  _157
REMARK   52  A    between atoms: _156  and  _159
REMARK   53  A    between atoms: _159  and  _160
REMARK   54  A    between atoms: _160  and  _161
REMARK   55  A    between atoms: _164  and  _166
REMARK   56  A    between atoms: _166  and  _167
REMARK   57  A    between atoms: _166  and  _169
REMARK   58  A    between atoms: _169  and  _170
REMARK   59  A    between atoms: _173  and  _175
REMARK   60  A    between atoms: _175  and  _176
REMARK   61  A    between atoms: _175  and  _178
REMARK   62  A    between atoms: _178  and  _179
REMARK   63  A    between atoms: _180  and  ZN_381
REMARK   64  A    between atoms: _184  and  _186
REMARK   65  A    between atoms: _186  and  _187
REMARK   66  A    between atoms: _186  and  _189
REMARK   67  A    between atoms: _189  and  _190
REMARK   68  A    between atoms: _193  and  _195
REMARK   69  A    between atoms: _195  and  _196
REMARK   70  A    between atoms: _195  and  _198
REMARK   71  A    between atoms: _201  and  _203
REMARK   72  A    between atoms: _203  and  _204
REMARK   73  A    between atoms: _203  and  _206
REMARK   74  A    between atoms: _206  and  _207
REMARK   75  A    between atoms: _212  and  _214
REMARK   76  A    between atoms: _214  and  _215
REMARK   77  A    between atoms: _214  and  _217
REMARK   78  A    between atoms: _217  and  _218
REMARK   79  A    between atoms: _224  and  _226
REMARK   80  A    between atoms: _226  and  _227
REMARK   81  A    between atoms: _226  and  _229
REMARK   82  A    between atoms: _232  and  _234
REMARK   83  A    between atoms: _234  and  _235
REMARK   84  A    between atoms: _234  and  _237
REMARK   85  A    between atoms: _237  and  _238
REMARK   86  A    between atoms: _241  and  _243
REMARK   87  A    between atoms: _243  and  _244
REMARK   88  A    between atoms: _247  and  _249
REMARK   89  A    between atoms: _249  and  _250
REMARK   90  A    between atoms: _249  and  _252
REMARK   91  A    between atoms: _255  and  _257
REMARK   92  A    between atoms: _257  and  _258
REMARK   93  A    between atoms: _257  and  _260
REMARK   94  A    between atoms: _260  and  _261
REMARK   95  A    between atoms: _263  and  _265
REMARK   96  A    between atoms: _265  and  _266
REMARK   97  A    between atoms: _265  and  _268
REMARK   98  A    between atoms: _268  and  _269
REMARK   99  A    between atoms: _272  and  _274
REMARK  100  A    between atoms: _274  and  _275
REMARK  101  A    between atoms: _274  and  _277
REMARK  102  A    between atoms: _277  and  _278
REMARK  103  A    between atoms: _281  and  _283
REMARK  104  A    between atoms: _283  and  _284
REMARK  105  A    between atoms: _283  and  _286
REMARK  106  A    between atoms: _286  and  _287
REMARK  107  A    between atoms: _291  and  _292
REMARK  108  A    between atoms: _298  and  _299
REMARK  109  A    between atoms: _304  and  _306
REMARK  110  A    between atoms: _306  and  _307
REMARK  111  A    between atoms: _306  and  _309
REMARK  112  A    between atoms: _309  and  _310
REMARK  113  A    between atoms: _313  and  _315
REMARK  114  A    between atoms: _315  and  _316
REMARK  115  A    between atoms: _315  and  _318
REMARK  116  A    between atoms: _318  and  _319
REMARK  117  A    between atoms: _322  and  _324
REMARK  118  A    between atoms: _324  and  _325
REMARK  119  A    between atoms: _324  and  _327
REMARK  120  A    between atoms: _329  and  _331
REMARK  121  A    between atoms: _331  and  _332
REMARK  122  A    between atoms: _331  and  _334
REMARK  123  A    between atoms: _337  and  _339
REMARK  124  A    between atoms: _339  and  _340
REMARK  125  A    between atoms: _339  and  _342
REMARK  126  A    between atoms: _342  and  _343
REMARK  127  A    between atoms: _353  and  _355
REMARK  128  A    between atoms: _355  and  _356
REMARK  129  A    between atoms: _355  and  _358
REMARK  130  A    between atoms: _358  and  _359
REMARK  131  A    between atoms: _364  and  _366
REMARK  132  A    between atoms: _366  and  _367
REMARK  133  A    between atoms: _366  and  _369
REMARK  134  A    between atoms: _369  and  _370
REMARK  135  A    between atoms: _370  and  _371
REMARK  136  A    between atoms: _371  and  _372
REMARK                            x       y       z     vdW  Elec       q    Type
REMARK                         _______ _______ _______ _____ _____    ______ ____
ROOT
ATOM      1  NE  ARG A   1      23.299  -2.007  21.155  0.00  0.00    +0.330 N 
ATOM      2  CZ  ARG A   1      23.497  -1.010  21.991  0.00  0.00    +0.000 C 
ATOM      3  NH2 ARG A   1      24.735  -0.783  22.464  0.00  0.00    +0.330 N 
ATOM      4 HH21 ARG A   1      24.903   0.002  23.125  0.00  0.00    +0.000 HD
ATOM      5 HH22 ARG A   1      25.524  -1.392  22.169  0.00  0.00    +0.000 HD
ATOM      6  NH1 ARG A   1      22.504  -0.214  22.349  0.00  0.00    +0.330 N 
ATOM      7 HH11 ARG A   1      22.678   0.569  23.011  0.00  0.00    +0.000 HD
ATOM      8 HH12 ARG A   1      21.549  -0.371  21.969  0.00  0.00    +0.000 HD
ATOM      9  HE  ARG A   1      24.125  -2.594  20.922  0.00  0.00    +0.000 HD
ENDROOT
BRANCH   1  10
ATOM     10  CD  ARG A   1      22.032  -2.370  20.522  0.00  0.00    +0.000 C 
BRANCH  10  11
ATOM     11  CG  ARG A   1      22.148  -3.697  19.818  0.00  0.00    +0.000 C 
BRANCH  11  12
ATOM     12  CB  ARG A   1      21.051  -3.978  18.830  0.00  0.00    +0.000 C 
BRANCH  12  13
ATOM     13  CA  ARG A   1      20.927  -5.446  18.392  0.00  0.00    +0.000 C 
BRANCH  13  14
ATOM     14  N   ARG A   1      20.001  -5.545  17.293  0.00  0.00    +0.000 NA
ATOM     15  H   ARG A   1      19.191  -4.893  17.289  0.00  0.00    +0.000 HD
ENDBRANCH  13  14
BRANCH  13  16
ATOM     16  C   ARG A   1      20.438  -6.323  19.541  0.00  0.00    +0.000 C 
ATOM     17  O   ARG A   1      19.231  -6.276  19.802  0.00  0.00    +0.000 OA
ENDBRANCH  13  16
ENDBRANCH  12  13
ENDBRANCH  11  12
ENDBRANCH  10  11
ENDBRANCH   1  10
TORSDOF 6
REMARK  Name = ../refined-set-2016/3m1k/3m1k_pocket.pdb
REMARK  136 active torsions:
REMARK  status: ('A' for Active; 'I' for Inactive)
REMARK    1  A    between atoms: _1  and  _3
REMARK    2  A    between atoms: _3  and  _4
REMARK    3  A    between atoms: _3  and  _6
REMARK    4  A    between atoms: _6  and  _7
REMARK    5  A    between atoms: _17  and  _19
REMARK    6  A    between atoms: _19  and  _20
REMARK    7  A    between atoms: _19  and  _22
REMARK    8  A    between atoms: _22  and  _23
REMARK    9  A    between atoms: _28  and  _29
REMARK   10  A    between atoms: _31  and  _33
REMARK   11  A    between atoms: _33  and  _34
REMARK   12  A    between atoms: _33  and  _36
REMARK   13  A    between atoms: _36  and  _37
REMARK   14  A    between atoms: _39  and  _41
REMARK   15  A    between atoms: _41  and  _42
REMARK   16  A    between atoms: _41  and  _44
REMARK   17  A    between atoms: _44  and  _45
REMARK   18  A    between atoms: _50  and  _52
REMARK   19  A    between atoms: _52  and  _53
REMARK   20  A    between atoms: _52  and  _55
REMARK   21  A    between atoms: _55  and  _56
REMARK   22  A    between atoms: _61  and  _63
REMARK   23  A    between atoms: _63  and  _64
REMARK   24  A    between atoms: _67  and  _69
REMARK   25  A    between atoms: _69  and  _70
REMARK   26  A    between atoms: _69  and  _72
REMARK   27  A    between atoms: _72  and  _73
REMARK   28  A    between atoms: _78  and  _80
REMARK   29  A    between atoms: _80  and  _81
REMARK   30  A    between atoms: _80  and  _83
REMARK   31  A    between atoms: _83  and  _84
REMARK   32  A    between atoms: _87  and  _89
REMARK   33  A    between atoms: _89  and  _90
REMARK   34  A    between atoms: _89  and  _92
REMARK   35  A    between atoms: _92  and  _93
REMARK   36  A    between atoms: _93  and  _94
REMARK   37  A    between atoms: _99  and  _101
REMARK   38  A    between atoms: _112  and  _115
REMARK   39  A    between atoms: _115  and  _116
REMARK   40  A    between atoms: _124  and  _125
REMARK   41  A    between atoms: _133  and  _135
REMARK   42  A    between atoms: _135  and  _136
REMARK   43  A    between atoms: _135  and  _138
REMARK   44  A    between atoms: _138  and  _139
REMARK   45  A    between atoms: _139  and  _140
REMARK   46  A    between atoms: _143  and  _145
REMARK   47  A    between atoms: _145  and  _146
REMARK   48  A    between atoms: _145  and  _148
REMARK   49  A    between atoms: _148  and  _149
REMARK   50  A    between atoms: _154  and  _156
REMARK   51  A    between atoms: _156  and  _157
REMARK   52  A    between atoms: _156  and  _159
REMARK   53  A    between atoms: _159  and  _160
REMARK   54  A    between atoms: _160  and  _161
REMARK   55  A    between atoms: _164  and  _166
REMARK   56  A    between atoms: _166  and  _167
REMARK   57  A    between atoms: _166  and  _169
REMARK   58  A    between atoms: _169  and  _170
REMARK   59  A    between atoms: _173  and  _175
REMARK   60  A    between atoms: _175  and  _176
REMARK   61  A    between atoms: _175  and  _178
REMARK   62  A    between atoms: _178  and  _179
REMARK   63  A    between atoms: _180  and  ZN_381
REMARK   64  A    between atoms: _184  and  _186
REMARK   65  A    between atoms: _186  and  _187
REMARK   66  A    between atoms: _186  and  _189
REMARK   67  A    between atoms: _189  and  _190
REMARK   68  A    between atoms: _193  and  _195
REMARK   69  A    between atoms: _195  and  _196
REMARK   70  A    between atoms: _195  and  _198
REMARK   71  A    between atoms: _201  and  _203
REMARK   72  A    between atoms: _203  and  _204
REMARK   73  A    between atoms: _203  and  _206
REMARK   74  A    between atoms: _206  and  _207
REMARK   75  A    between atoms: _212  and  _214
REMARK   76  A    between atoms: _214  and  _215
REMARK   77  A    between atoms: _214  and  _217
REMARK   78  A    between atoms: _217  and  _218
REMARK   79  A    between atoms: _224  and  _226
REMARK   80  A    between atoms: _226  and  _227
REMARK   81  A    between atoms: _226  and  _229
REMARK   82  A    between atoms: _232  and  _234
REMARK   83  A    between atoms: _234  and  _235
REMARK   84  A    between atoms: _234  and  _237
REMARK   85  A    between atoms: _237  and  _238
REMARK   86  A    between atoms: _241  and  _243
REMARK   87  A    between atoms: _243  and  _244
REMARK   88  A    between atoms: _247  and  _249
REMARK   89  A    between atoms: _249  and  _250
REMARK   90  A    between atoms: _249  and  _252
REMARK   91  A    between atoms: _255  and  _257
REMARK   92  A    between atoms: _257  and  _258
REMARK   93  A    between atoms: _257  and  _260
REMARK   94  A    between atoms: _260  and  _261
REMARK   95  A    between atoms: _263  and  _265
REMARK   96  A    between atoms: _265  and  _266
REMARK   97  A    between atoms: _265  and  _268
REMARK   98  A    between atoms: _268  and  _269
REMARK   99  A    between atoms: _272  and  _274
REMARK  100  A    between atoms: _274  and  _275
REMARK  101  A    between atoms: _274  and  _277
REMARK  102  A    between atoms: _277  and  _278
REMARK  103  A    between atoms: _281  and  _283
REMARK  104  A    between atoms: _283  and  _284
REMARK  105  A    between atoms: _283  and  _286
REMARK  106  A    between atoms: _286  and  _287
REMARK  107  A    between atoms: _291  and  _292
REMARK  108  A    between atoms: _298  and  _299
REMARK  109  A    between atoms: _304  and  _306
REMARK  110  A    between atoms: _306  and  _307
REMARK  111  A    between atoms: _306  and  _309
REMARK  112  A    between atoms: _309  and  _310
REMARK  113  A    between atoms: _313  and  _315
REMARK  114  A    between atoms: _315  and  _316
REMARK  115  A    between atoms: _315  and  _318
REMARK  116  A    between atoms: _318  and  _319
REMARK  117  A    between atoms: _322  and  _324
REMARK  118  A    between atoms: _324  and  _325
REMARK  119  A    between atoms: _324  and  _327
REMARK  120  A    between atoms: _329  and  _331
REMARK  121  A    between atoms: _331  and  _332
REMARK  122  A    between atoms: _331  and  _334
REMARK  123  A    between atoms: _337  and  _339
REMARK  124  A    between atoms: _339  and  _340
REMARK  125  A    between atoms: _339  and  _342
REMARK  126  A    between atoms: _342  and  _343
REMARK  127  A    between atoms: _353  and  _355
REMARK  128  A    between atoms: _355  and  _356
REMARK  129  A    between atoms: _355  and  _358
REMARK  130  A    between atoms: _358  and  _359
REMARK  131  A    between atoms: _364  and  _366
REMARK  132  A    between atoms: _366  and  _367
REMARK  133  A    between atoms: _366  and  _369
REMARK  134  A    between atoms: _369  and  _370
REMARK  135  A    between atoms: _370  and  _371
REMARK  136  A    between atoms: _371  and  _372
REMARK                            x       y       z     vdW  Elec       q    Type
REMARK                         _______ _______ _______ _____ _____    ______ ____
ROOT
ATOM      1  O   HOH     1      19.840  -2.339  15.793  0.00  0.00    +0.000 OA
ENDROOT
TORSDOF 0
REMARK  Name = ../refined-set-2016/3m1k/3m1k_pocket.pdb
REMARK  136 active torsions:
REMARK  status: ('A' for Active; 'I' for Inactive)
REMARK    1  A    between atoms: _1  and  _3
REMARK    2  A    between atoms: _3  and  _4
REMARK    3  A    between atoms: _3  and  _6
REMARK    4  A    between atoms: _6  and  _7
REMARK    5  A    between atoms: _17  and  _19
REMARK    6  A    between atoms: _19  and  _20
REMARK    7  A    between atoms: _19  and  _22
REMARK    8  A    between atoms: _22  and  _23
REMARK    9  A    between atoms: _28  and  _29
REMARK   10  A    between atoms: _31  and  _33
REMARK   11  A    between atoms: _33  and  _34
REMARK   12  A    between atoms: _33  and  _36
REMARK   13  A    between atoms: _36  and  _37
REMARK   14  A    between atoms: _39  and  _41
REMARK   15  A    between atoms: _41  and  _42
REMARK   16  A    between atoms: _41  and  _44
REMARK   17  A    between atoms: _44  and  _45
REMARK   18  A    between atoms: _50  and  _52
REMARK   19  A    between atoms: _52  and  _53
REMARK   20  A    between atoms: _52  and  _55
REMARK   21  A    between atoms: _55  and  _56
REMARK   22  A    between atoms: _61  and  _63
REMARK   23  A    between atoms: _63  and  _64
REMARK   24  A    between atoms: _67  and  _69
REMARK   25  A    between atoms: _69  and  _70
REMARK   26  A    between atoms: _69  and  _72
REMARK   27  A    between atoms: _72  and  _73
REMARK   28  A    between atoms: _78  and  _80
REMARK   29  A    between atoms: _80  and  _81
REMARK   30  A    between atoms: _80  and  _83
REMARK   31  A    between atoms: _83  and  _84
REMARK   32  A    between atoms: _87  and  _89
REMARK   33  A    between atoms: _89  and  _90
REMARK   34  A    between atoms: _89  and  _92
REMARK   35  A    between atoms: _92  and  _93
REMARK   36  A    between atoms: _93  and  _94
REMARK   37  A    between atoms: _99  and  _101
REMARK   38  A    between atoms: _112  and  _115
REMARK   39  A    between atoms: _115  and  _116
REMARK   40  A    between atoms: _124  and  _125
REMARK   41  A    between atoms: _133  and  _135
REMARK   42  A    between atoms: _135  and  _136
REMARK   43  A    between atoms: _135  and  _138
REMARK   44  A    between atoms: _138  and  _139
REMARK   45  A    between atoms: _139  and  _140
REMARK   46  A    between atoms: _143  and  _145
REMARK   47  A    between atoms: _145  and  _146
REMARK   48  A    between atoms: _145  and  _148
REMARK   49  A    between atoms: _148  and  _149
REMARK   50  A    between atoms: _154  and  _156
REMARK   51  A    between atoms: _156  and  _157
REMARK   52  A    between atoms: _156  and  _159
REMARK   53  A    between atoms: _159  and  _160
REMARK   54  A    between atoms: _160  and  _161
REMARK   55  A    between atoms: _164  and  _166
REMARK   56  A    between atoms: _166  and  _167
REMARK   57  A    between atoms: _166  and  _169
REMARK   58  A    between atoms: _169  and  _170
REMARK   59  A    between atoms: _173  and  _175
REMARK   60  A    between atoms: _175  and  _176
REMARK   61  A    between atoms: _175  and  _178
REMARK   62  A    between atoms: _178  and  _179
REMARK   63  A    between atoms: _180  and  ZN_381
REMARK   64  A    between atoms: _184  and  _186
REMARK   65  A    between atoms: _186  and  _187
REMARK   66  A    between atoms: _186  and  _189
REMARK   67  A    between atoms: _189  and  _190
REMARK   68  A    between atoms: _193  and  _195
REMARK   69  A    between atoms: _195  and  _196
REMARK   70  A    between atoms: _195  and  _198
REMARK   71  A    between atoms: _201  and  _203
REMARK   72  A    between atoms: _203  and  _204
REMARK   73  A    between atoms: _203  and  _206
REMARK   74  A    between atoms: _206  and  _207
REMARK   75  A    between atoms: _212  and  _214
REMARK   76  A    between atoms: _214  and  _215
REMARK   77  A    between atoms: _214  and  _217
REMARK   78  A    between atoms: _217  and  _218
REMARK   79  A    between atoms: _224  and  _226
REMARK   80  A    between atoms: _226  and  _227
REMARK   81  A    between atoms: _226  and  _229
REMARK   82  A    between atoms: _232  and  _234
REMARK   83  A    between atoms: _234  and  _235
REMARK   84  A    between atoms: _234  and  _237
REMARK   85  A    between atoms: _237  and  _238
REMARK   86  A    between atoms: _241  and  _243
REMARK   87  A    between atoms: _243  and  _244
REMARK   88  A    between atoms: _247  and  _249
REMARK   89  A    between atoms: _249  and  _250
REMARK   90  A    between atoms: _249  and  _252
REMARK   91  A    between atoms: _255  and  _257
REMARK   92  A    between atoms: _257  and  _258
REMARK   93  A    between atoms: _257  and  _260
REMARK   94  A    between atoms: _260  and  _261
REMARK   95  A    between atoms: _263  and  _265
REMARK   96  A    between atoms: _265  and  _266
REMARK   97  A    between atoms: _265  and  _268
REMARK   98  A    between atoms: _268  and  _269
REMARK   99  A    between atoms: _272  and  _274
REMARK  100  A    between atoms: _274  and  _275
REMARK  101  A    between atoms: _274  and  _277
REMARK  102  A    between atoms: _277  and  _278
REMARK  103  A    between atoms: _281  and  _283
REMARK  104  A    between atoms: _283  and  _284
REMARK  105  A    between atoms: _283  and  _286
REMARK  106  A    between atoms: _286  and  _287
REMARK  107  A    between atoms: _291  and  _292
REMARK  108  A    between atoms: _298  and  _299
REMARK  109  A    between atoms: _304  and  _306
REMARK  110  A    between atoms: _306  and  _307
REMARK  111  A    between atoms: _306  and  _309
REMARK  112  A    between atoms: _309  and  _310
REMARK  113  A    between atoms: _313  and  _315
REMARK  114  A    between atoms: _315  and  _316
REMARK  115  A    between atoms: _315  and  _318
REMARK  116  A    between atoms: _318  and  _319
REMARK  117  A    between atoms: _322  and  _324
REMARK  118  A    between atoms: _324  and  _325
REMARK  119  A    between atoms: _324  and  _327
REMARK  120  A    between atoms: _329  and  _331
REMARK  121  A    between atoms: _331  and  _332
REMARK  122  A    between atoms: _331  and  _334
REMARK  123  A    between atoms: _337  and  _339
REMARK  124  A    between atoms: _339  and  _340
REMARK  125  A    between atoms: _339  and  _342
REMARK  126  A    between atoms: _342  and  _343
REMARK  127  A    between atoms: _353  and  _355
REMARK  128  A    between atoms: _355  and  _356
REMARK  129  A    between atoms: _355  and  _358
REMARK  130  A    between atoms: _358  and  _359
REMARK  131  A    between atoms: _364  and  _366
REMARK  132  A    between atoms: _366  and  _367
REMARK  133  A    between atoms: _366  and  _369
REMARK  134  A    between atoms: _369  and  _370
REMARK  135  A    between atoms: _370  and  _371
REMARK  136  A    between atoms: _371  and  _372
REMARK                            x       y       z     vdW  Elec       q    Type
REMARK                         _______ _______ _______ _____ _____    ______ ____
ROOT
ATOM      1  O   HOH     1      18.594  -1.453  11.442  0.00  0.00    +0.000 OA
ENDROOT
TORSDOF 0
REMARK  Name = ../refined-set-2016/3m1k/3m1k_pocket.pdb
REMARK  136 active torsions:
REMARK  status: ('A' for Active; 'I' for Inactive)
REMARK    1  A    between atoms: _1  and  _3
REMARK    2  A    between atoms: _3  and  _4
REMARK    3  A    between atoms: _3  and  _6
REMARK    4  A    between atoms: _6  and  _7
REMARK    5  A    between atoms: _17  and  _19
REMARK    6  A    between atoms: _19  and  _20
REMARK    7  A    between atoms: _19  and  _22
REMARK    8  A    between atoms: _22  and  _23
REMARK    9  A    between atoms: _28  and  _29
REMARK   10  A    between atoms: _31  and  _33
REMARK   11  A    between atoms: _33  and  _34
REMARK   12  A    between atoms: _33  and  _36
REMARK   13  A    between atoms: _36  and  _37
REMARK   14  A    between atoms: _39  and  _41
REMARK   15  A    between atoms: _41  and  _42
REMARK   16  A    between atoms: _41  and  _44
REMARK   17  A    between atoms: _44  and  _45
REMARK   18  A    between atoms: _50  and  _52
REMARK   19  A    between atoms: _52  and  _53
REMARK   20  A    between atoms: _52  and  _55
REMARK   21  A    between atoms: _55  and  _56
REMARK   22  A    between atoms: _61  and  _63
REMARK   23  A    between atoms: _63  and  _64
REMARK   24  A    between atoms: _67  and  _69
REMARK   25  A    between atoms: _69  and  _70
REMARK   26  A    between atoms: _69  and  _72
REMARK   27  A    between atoms: _72  and  _73
REMARK   28  A    between atoms: _78  and  _80
REMARK   29  A    between atoms: _80  and  _81
REMARK   30  A    between atoms: _80  and  _83
REMARK   31  A    between atoms: _83  and  _84
REMARK   32  A    between atoms: _87  and  _89
REMARK   33  A    between atoms: _89  and  _90
REMARK   34  A    between atoms: _89  and  _92
REMARK   35  A    between atoms: _92  and  _93
REMARK   36  A    between atoms: _93  and  _94
REMARK   37  A    between atoms: _99  and  _101
REMARK   38  A    between atoms: _112  and  _115
REMARK   39  A    between atoms: _115  and  _116
REMARK   40  A    between atoms: _124  and  _125
REMARK   41  A    between atoms: _133  and  _135
REMARK   42  A    between atoms: _135  and  _136
REMARK   43  A    between atoms: _135  and  _138
REMARK   44  A    between atoms: _138  and  _139
REMARK   45  A    between atoms: _139  and  _140
REMARK   46  A    between atoms: _143  and  _145
REMARK   47  A    between atoms: _145  and  _146
REMARK   48  A    between atoms: _145  and  _148
REMARK   49  A    between atoms: _148  and  _149
REMARK   50  A    between atoms: _154  and  _156
REMARK   51  A    between atoms: _156  and  _157
REMARK   52  A    between atoms: _156  and  _159
REMARK   53  A    between atoms: _159  and  _160
REMARK   54  A    between atoms: _160  and  _161
REMARK   55  A    between atoms: _164  and  _166
REMARK   56  A    between atoms: _166  and  _167
REMARK   57  A    between atoms: _166  and  _169
REMARK   58  A    between atoms: _169  and  _170
REMARK   59  A    between atoms: _173  and  _175
REMARK   60  A    between atoms: _175  and  _176
REMARK   61  A    between atoms: _175  and  _178
REMARK   62  A    between atoms: _178  and  _179
REMARK   63  A    between atoms: _180  and  ZN_381
REMARK   64  A    between atoms: _184  and  _186
REMARK   65  A    between atoms: _186  and  _187
REMARK   66  A    between atoms: _186  and  _189
REMARK   67  A    between atoms: _189  and  _190
REMARK   68  A    between atoms: _193  and  _195
REMARK   69  A    between atoms: _195  and  _196
REMARK   70  A    between atoms: _195  and  _198
REMARK   71  A    between atoms: _201  and  _203
REMARK   72  A    between atoms: _203  and  _204
REMARK   73  A    between atoms: _203  and  _206
REMARK   74  A    between atoms: _206  and  _207
REMARK   75  A    between atoms: _212  and  _214
REMARK   76  A    between atoms: _214  and  _215
REMARK   77  A    between atoms: _214  and  _217
REMARK   78  A    between atoms: _217  and  _218
REMARK   79  A    between atoms: _224  and  _226
REMARK   80  A    between atoms: _226  and  _227
REMARK   81  A    between atoms: _226  and  _229
REMARK   82  A    between atoms: _232  and  _234
REMARK   83  A    between atoms: _234  and  _235
REMARK   84  A    between atoms: _234  and  _237
REMARK   85  A    between atoms: _237  and  _238
REMARK   86  A    between atoms: _241  and  _243
REMARK   87  A    between atoms: _243  and  _244
REMARK   88  A    between atoms: _247  and  _249
REMARK   89  A    between atoms: _249  and  _250
REMARK   90  A    between atoms: _249  and  _252
REMARK   91  A    between atoms: _255  and  _257
REMARK   92  A    between atoms: _257  and  _258
REMARK   93  A    between atoms: _257  and  _260
REMARK   94  A    between atoms: _260  and  _261
REMARK   95  A    between atoms: _263  and  _265
REMARK   96  A    between atoms: _265  and  _266
REMARK   97  A    between atoms: _265  and  _268
REMARK   98  A    between atoms: _268  and  _269
REMARK   99  A    between atoms: _272  and  _274
REMARK  100  A    between atoms: _274  and  _275
REMARK  101  A    between atoms: _274  and  _277
REMARK  102  A    between atoms: _277  and  _278
REMARK  103  A    between atoms: _281  and  _283
REMARK  104  A    between atoms: _283  and  _284
REMARK  105  A    between atoms: _283  and  _286
REMARK  106  A    between atoms: _286  and  _287
REMARK  107  A    between atoms: _291  and  _292
REMARK  108  A    between atoms: _298  and  _299
REMARK  109  A    between atoms: _304  and  _306
REMARK  110  A    between atoms: _306  and  _307
REMARK  111  A    between atoms: _306  and  _309
REMARK  112  A    between atoms: _309  and  _310
REMARK  113  A    between atoms: _313  and  _315
REMARK  114  A    between atoms: _315  and  _316
REMARK  115  A    between atoms: _315  and  _318
REMARK  116  A    between atoms: _318  and  _319
REMARK  117  A    between atoms: _322  and  _324
REMARK  118  A    between atoms: _324  and  _325
REMARK  119  A    between atoms: _324  and  _327
REMARK  120  A    between atoms: _329  and  _331
REMARK  121  A    between atoms: _331  and  _332
REMARK  122  A    between atoms: _331  and  _334
REMARK  123  A    between atoms: _337  and  _339
REMARK  124  A    between atoms: _339  and  _340
REMARK  125  A    between atoms: _339  and  _342
REMARK  126  A    between atoms: _342  and  _343
REMARK  127  A    between atoms: _353  and  _355
REMARK  128  A    between atoms: _355  and  _356
REMARK  129  A    between atoms: _355  and  _358
REMARK  130  A    between atoms: _358  and  _359
REMARK  131  A    between atoms: _364  and  _366
REMARK  132  A    between atoms: _366  and  _367
REMARK  133  A    between atoms: _366  and  _369
REMARK  134  A    between atoms: _369  and  _370
REMARK  135  A    between atoms: _370  and  _371
REMARK  136  A    between atoms: _371  and  _372
REMARK                            x       y       z     vdW  Elec       q    Type
REMARK                         _______ _______ _______ _____ _____    ______ ____
ROOT
ATOM      1  O   HOH     1      16.830   1.151  12.077  0.00  0.00    +0.000 OA
ENDROOT
TORSDOF 0
REMARK  Name = ../refined-set-2016/3m1k/3m1k_pocket.pdb
REMARK  136 active torsions:
REMARK  status: ('A' for Active; 'I' for Inactive)
REMARK    1  A    between atoms: _1  and  _3
REMARK    2  A    between atoms: _3  and  _4
REMARK    3  A    between atoms: _3  and  _6
REMARK    4  A    between atoms: _6  and  _7
REMARK    5  A    between atoms: _17  and  _19
REMARK    6  A    between atoms: _19  and  _20
REMARK    7  A    between atoms: _19  and  _22
REMARK    8  A    between atoms: _22  and  _23
REMARK    9  A    between atoms: _28  and  _29
REMARK   10  A    between atoms: _31  and  _33
REMARK   11  A    between atoms: _33  and  _34
REMARK   12  A    between atoms: _33  and  _36
REMARK   13  A    between atoms: _36  and  _37
REMARK   14  A    between atoms: _39  and  _41
REMARK   15  A    between atoms: _41  and  _42
REMARK   16  A    between atoms: _41  and  _44
REMARK   17  A    between atoms: _44  and  _45
REMARK   18  A    between atoms: _50  and  _52
REMARK   19  A    between atoms: _52  and  _53
REMARK   20  A    between atoms: _52  and  _55
REMARK   21  A    between atoms: _55  and  _56
REMARK   22  A    between atoms: _61  and  _63
REMARK   23  A    between atoms: _63  and  _64
REMARK   24  A    between atoms: _67  and  _69
REMARK   25  A    between atoms: _69  and  _70
REMARK   26  A    between atoms: _69  and  _72
REMARK   27  A    between atoms: _72  and  _73
REMARK   28  A    between atoms: _78  and  _80
REMARK   29  A    between atoms: _80  and  _81
REMARK   30  A    between atoms: _80  and  _83
REMARK   31  A    between atoms: _83  and  _84
REMARK   32  A    between atoms: _87  and  _89
REMARK   33  A    between atoms: _89  and  _90
REMARK   34  A    between atoms: _89  and  _92
REMARK   35  A    between atoms: _92  and  _93
REMARK   36  A    between atoms: _93  and  _94
REMARK   37  A    between atoms: _99  and  _101
REMARK   38  A    between atoms: _112  and  _115
REMARK   39  A    between atoms: _115  and  _116
REMARK   40  A    between atoms: _124  and  _125
REMARK   41  A    between atoms: _133  and  _135
REMARK   42  A    between atoms: _135  and  _136
REMARK   43  A    between atoms: _135  and  _138
REMARK   44  A    between atoms: _138  and  _139
REMARK   45  A    between atoms: _139  and  _140
REMARK   46  A    between atoms: _143  and  _145
REMARK   47  A    between atoms: _145  and  _146
REMARK   48  A    between atoms: _145  and  _148
REMARK   49  A    between atoms: _148  and  _149
REMARK   50  A    between atoms: _154  and  _156
REMARK   51  A    between atoms: _156  and  _157
REMARK   52  A    between atoms: _156  and  _159
REMARK   53  A    between atoms: _159  and  _160
REMARK   54  A    between atoms: _160  and  _161
REMARK   55  A    between atoms: _164  and  _166
REMARK   56  A    between atoms: _166  and  _167
REMARK   57  A    between atoms: _166  and  _169
REMARK   58  A    between atoms: _169  and  _170
REMARK   59  A    between atoms: _173  and  _175
REMARK   60  A    between atoms: _175  and  _176
REMARK   61  A    between atoms: _175  and  _178
REMARK   62  A    between atoms: _178  and  _179
REMARK   63  A    between atoms: _180  and  ZN_381
REMARK   64  A    between atoms: _184  and  _186
REMARK   65  A    between atoms: _186  and  _187
REMARK   66  A    between atoms: _186  and  _189
REMARK   67  A    between atoms: _189  and  _190
REMARK   68  A    between atoms: _193  and  _195
REMARK   69  A    between atoms: _195  and  _196
REMARK   70  A    between atoms: _195  and  _198
REMARK   71  A    between atoms: _201  and  _203
REMARK   72  A    between atoms: _203  and  _204
REMARK   73  A    between atoms: _203  and  _206
REMARK   74  A    between atoms: _206  and  _207
REMARK   75  A    between atoms: _212  and  _214
REMARK   76  A    between atoms: _214  and  _215
REMARK   77  A    between atoms: _214  and  _217
REMARK   78  A    between atoms: _217  and  _218
REMARK   79  A    between atoms: _224  and  _226
REMARK   80  A    between atoms: _226  and  _227
REMARK   81  A    between atoms: _226  and  _229
REMARK   82  A    between atoms: _232  and  _234
REMARK   83  A    between atoms: _234  and  _235
REMARK   84  A    between atoms: _234  and  _237
REMARK   85  A    between atoms: _237  and  _238
REMARK   86  A    between atoms: _241  and  _243
REMARK   87  A    between atoms: _243  and  _244
REMARK   88  A    between atoms: _247  and  _249
REMARK   89  A    between atoms: _249  and  _250
REMARK   90  A    between atoms: _249  and  _252
REMARK   91  A    between atoms: _255  and  _257
REMARK   92  A    between atoms: _257  and  _258
REMARK   93  A    between atoms: _257  and  _260
REMARK   94  A    between atoms: _260  and  _261
REMARK   95  A    between atoms: _263  and  _265
REMARK   96  A    between atoms: _265  and  _266
REMARK   97  A    between atoms: _265  and  _268
REMARK   98  A    between atoms: _268  and  _269
REMARK   99  A    between atoms: _272  and  _274
REMARK  100  A    between atoms: _274  and  _275
REMARK  101  A    between atoms: _274  and  _277
REMARK  102  A    between atoms: _277  and  _278
REMARK  103  A    between atoms: _281  and  _283
REMARK  104  A    between atoms: _283  and  _284
REMARK  105  A    between atoms: _283  and  _286
REMARK  106  A    between atoms: _286  and  _287
REMARK  107  A    between atoms: _291  and  _292
REMARK  108  A    between atoms: _298  and  _299
REMARK  109  A    between atoms: _304  and  _306
REMARK  110  A    between atoms: _306  and  _307
REMARK  111  A    between atoms: _306  and  _309
REMARK  112  A    between atoms: _309  and  _310
REMARK  113  A    between atoms: _313  and  _315
REMARK  114  A    between atoms: _315  and  _316
REMARK  115  A    between atoms: _315  and  _318
REMARK  116  A    between atoms: _318  and  _319
REMARK  117  A    between atoms: _322  and  _324
REMARK  118  A    between atoms: _324  and  _325
REMARK  119  A    between atoms: _324  and  _327
REMARK  120  A    between atoms: _329  and  _331
REMARK  121  A    between atoms: _331  and  _332
REMARK  122  A    between atoms: _331  and  _334
REMARK  123  A    between atoms: _337  and  _339
REMARK  124  A    between atoms: _339  and  _340
REMARK  125  A    between atoms: _339  and  _342
REMARK  126  A    between atoms: _342  and  _343
REMARK  127  A    between atoms: _353  and  _355
REMARK  128  A    between atoms: _355  and  _356
REMARK  129  A    between atoms: _355  and  _358
REMARK  130  A    between atoms: _358  and  _359
REMARK  131  A    between atoms: _364  and  _366
REMARK  132  A    between atoms: _366  and  _367
REMARK  133  A    between atoms: _366  and  _369
REMARK  134  A    between atoms: _369  and  _370
REMARK  135  A    between atoms: _370  and  _371
REMARK  136  A    between atoms: _371  and  _372
REMARK                            x       y       z     vdW  Elec       q    Type
REMARK                         _______ _______ _______ _____ _____    ______ ____
ROOT
ATOM      1  O   HOH     1      15.739   2.991  10.576  0.00  0.00    +0.000 OA
ENDROOT
TORSDOF 0
REMARK  Name = ../refined-set-2016/3m1k/3m1k_pocket.pdb
REMARK  136 active torsions:
REMARK  status: ('A' for Active; 'I' for Inactive)
REMARK    1  A    between atoms: _1  and  _3
REMARK    2  A    between atoms: _3  and  _4
REMARK    3  A    between atoms: _3  and  _6
REMARK    4  A    between atoms: _6  and  _7
REMARK    5  A    between atoms: _17  and  _19
REMARK    6  A    between atoms: _19  and  _20
REMARK    7  A    between atoms: _19  and  _22
REMARK    8  A    between atoms: _22  and  _23
REMARK    9  A    between atoms: _28  and  _29
REMARK   10  A    between atoms: _31  and  _33
REMARK   11  A    between atoms: _33  and  _34
REMARK   12  A    between atoms: _33  and  _36
REMARK   13  A    between atoms: _36  and  _37
REMARK   14  A    between atoms: _39  and  _41
REMARK   15  A    between atoms: _41  and  _42
REMARK   16  A    between atoms: _41  and  _44
REMARK   17  A    between atoms: _44  and  _45
REMARK   18  A    between atoms: _50  and  _52
REMARK   19  A    between atoms: _52  and  _53
REMARK   20  A    between atoms: _52  and  _55
REMARK   21  A    between atoms: _55  and  _56
REMARK   22  A    between atoms: _61  and  _63
REMARK   23  A    between atoms: _63  and  _64
REMARK   24  A    between atoms: _67  and  _69
REMARK   25  A    between atoms: _69  and  _70
REMARK   26  A    between atoms: _69  and  _72
REMARK   27  A    between atoms: _72  and  _73
REMARK   28  A    between atoms: _78  and  _80
REMARK   29  A    between atoms: _80  and  _81
REMARK   30  A    between atoms: _80  and  _83
REMARK   31  A    between atoms: _83  and  _84
REMARK   32  A    between atoms: _87  and  _89
REMARK   33  A    between atoms: _89  and  _90
REMARK   34  A    between atoms: _89  and  _92
REMARK   35  A    between atoms: _92  and  _93
REMARK   36  A    between atoms: _93  and  _94
REMARK   37  A    between atoms: _99  and  _101
REMARK   38  A    between atoms: _112  and  _115
REMARK   39  A    between atoms: _115  and  _116
REMARK   40  A    between atoms: _124  and  _125
REMARK   41  A    between atoms: _133  and  _135
REMARK   42  A    between atoms: _135  and  _136
REMARK   43  A    between atoms: _135  and  _138
REMARK   44  A    between atoms: _138  and  _139
REMARK   45  A    between atoms: _139  and  _140
REMARK   46  A    between atoms: _143  and  _145
REMARK   47  A    between atoms: _145  and  _146
REMARK   48  A    between atoms: _145  and  _148
REMARK   49  A    between atoms: _148  and  _149
REMARK   50  A    between atoms: _154  and  _156
REMARK   51  A    between atoms: _156  and  _157
REMARK   52  A    between atoms: _156  and  _159
REMARK   53  A    between atoms: _159  and  _160
REMARK   54  A    between atoms: _160  and  _161
REMARK   55  A    between atoms: _164  and  _166
REMARK   56  A    between atoms: _166  and  _167
REMARK   57  A    between atoms: _166  and  _169
REMARK   58  A    between atoms: _169  and  _170
REMARK   59  A    between atoms: _173  and  _175
REMARK   60  A    between atoms: _175  and  _176
REMARK   61  A    between atoms: _175  and  _178
REMARK   62  A    between atoms: _178  and  _179
REMARK   63  A    between atoms: _180  and  ZN_381
REMARK   64  A    between atoms: _184  and  _186
REMARK   65  A    between atoms: _186  and  _187
REMARK   66  A    between atoms: _186  and  _189
REMARK   67  A    between atoms: _189  and  _190
REMARK   68  A    between atoms: _193  and  _195
REMARK   69  A    between atoms: _195  and  _196
REMARK   70  A    between atoms: _195  and  _198
REMARK   71  A    between atoms: _201  and  _203
REMARK   72  A    between atoms: _203  and  _204
REMARK   73  A    between atoms: _203  and  _206
REMARK   74  A    between atoms: _206  and  _207
REMARK   75  A    between atoms: _212  and  _214
REMARK   76  A    between atoms: _214  and  _215
REMARK   77  A    between atoms: _214  and  _217
REMARK   78  A    between atoms: _217  and  _218
REMARK   79  A    between atoms: _224  and  _226
REMARK   80  A    between atoms: _226  and  _227
REMARK   81  A    between atoms: _226  and  _229
REMARK   82  A    between atoms: _232  and  _234
REMARK   83  A    between atoms: _234  and  _235
REMARK   84  A    between atoms: _234  and  _237
REMARK   85  A    between atoms: _237  and  _238
REMARK   86  A    between atoms: _241  and  _243
REMARK   87  A    between atoms: _243  and  _244
REMARK   88  A    between atoms: _247  and  _249
REMARK   89  A    between atoms: _249  and  _250
REMARK   90  A    between atoms: _249  and  _252
REMARK   91  A    between atoms: _255  and  _257
REMARK   92  A    between atoms: _257  and  _258
REMARK   93  A    between atoms: _257  and  _260
REMARK   94  A    between atoms: _260  and  _261
REMARK   95  A    between atoms: _263  and  _265
REMARK   96  A    between atoms: _265  and  _266
REMARK   97  A    between atoms: _265  and  _268
REMARK   98  A    between atoms: _268  and  _269
REMARK   99  A    between atoms: _272  and  _274
REMARK  100  A    between atoms: _274  and  _275
REMARK  101  A    between atoms: _274  and  _277
REMARK  102  A    between atoms: _277  and  _278
REMARK  103  A    between atoms: _281  and  _283
REMARK  104  A    between atoms: _283  and  _284
REMARK  105  A    between atoms: _283  and  _286
REMARK  106  A    between atoms: _286  and  _287
REMARK  107  A    between atoms: _291  and  _292
REMARK  108  A    between atoms: _298  and  _299
REMARK  109  A    between atoms: _304  and  _306
REMARK  110  A    between atoms: _306  and  _307
REMARK  111  A    between atoms: _306  and  _309
REMARK  112  A    between atoms: _309  and  _310
REMARK  113  A    between atoms: _313  and  _315
REMARK  114  A    between atoms: _315  and  _316
REMARK  115  A    between atoms: _315  and  _318
REMARK  116  A    between atoms: _318  and  _319
REMARK  117  A    between atoms: _322  and  _324
REMARK  118  A    between atoms: _324  and  _325
REMARK  119  A    between atoms: _324  and  _327
REMARK  120  A    between atoms: _329  and  _331
REMARK  121  A    between atoms: _331  and  _332
REMARK  122  A    between atoms: _331  and  _334
REMARK  123  A    between atoms: _337  and  _339
REMARK  124  A    between atoms: _339  and  _340
REMARK  125  A    between atoms: _339  and  _342
REMARK  126  A    between atoms: _342  and  _343
REMARK  127  A    between atoms: _353  and  _355
REMARK  128  A    between atoms: _355  and  _356
REMARK  129  A    between atoms: _355  and  _358
REMARK  130  A    between atoms: _358  and  _359
REMARK  131  A    between atoms: _364  and  _366
REMARK  132  A    between atoms: _366  and  _367
REMARK  133  A    between atoms: _366  and  _369
REMARK  134  A    between atoms: _369  and  _370
REMARK  135  A    between atoms: _370  and  _371
REMARK  136  A    between atoms: _371  and  _372
REMARK                            x       y       z     vdW  Elec       q    Type
REMARK                         _______ _______ _______ _____ _____    ______ ____
ROOT
ATOM      1  O   HOH     1      18.450   6.447   7.510  0.00  0.00    +0.000 OA
ENDROOT
TORSDOF 0
REMARK  Name = ../refined-set-2016/3m1k/3m1k_pocket.pdb
REMARK  136 active torsions:
REMARK  status: ('A' for Active; 'I' for Inactive)
REMARK    1  A    between atoms: _1  and  _3
REMARK    2  A    between atoms: _3  and  _4
REMARK    3  A    between atoms: _3  and  _6
REMARK    4  A    between atoms: _6  and  _7
REMARK    5  A    between atoms: _17  and  _19
REMARK    6  A    between atoms: _19  and  _20
REMARK    7  A    between atoms: _19  and  _22
REMARK    8  A    between atoms: _22  and  _23
REMARK    9  A    between atoms: _28  and  _29
REMARK   10  A    between atoms: _31  and  _33
REMARK   11  A    between atoms: _33  and  _34
REMARK   12  A    between atoms: _33  and  _36
REMARK   13  A    between atoms: _36  and  _37
REMARK   14  A    between atoms: _39  and  _41
REMARK   15  A    between atoms: _41  and  _42
REMARK   16  A    between atoms: _41  and  _44
REMARK   17  A    between atoms: _44  and  _45
REMARK   18  A    between atoms: _50  and  _52
REMARK   19  A    between atoms: _52  and  _53
REMARK   20  A    between atoms: _52  and  _55
REMARK   21  A    between atoms: _55  and  _56
REMARK   22  A    between atoms: _61  and  _63
REMARK   23  A    between atoms: _63  and  _64
REMARK   24  A    between atoms: _67  and  _69
REMARK   25  A    between atoms: _69  and  _70
REMARK   26  A    between atoms: _69  and  _72
REMARK   27  A    between atoms: _72  and  _73
REMARK   28  A    between atoms: _78  and  _80
REMARK   29  A    between atoms: _80  and  _81
REMARK   30  A    between atoms: _80  and  _83
REMARK   31  A    between atoms: _83  and  _84
REMARK   32  A    between atoms: _87  and  _89
REMARK   33  A    between atoms: _89  and  _90
REMARK   34  A    between atoms: _89  and  _92
REMARK   35  A    between atoms: _92  and  _93
REMARK   36  A    between atoms: _93  and  _94
REMARK   37  A    between atoms: _99  and  _101
REMARK   38  A    between atoms: _112  and  _115
REMARK   39  A    between atoms: _115  and  _116
REMARK   40  A    between atoms: _124  and  _125
REMARK   41  A    between atoms: _133  and  _135
REMARK   42  A    between atoms: _135  and  _136
REMARK   43  A    between atoms: _135  and  _138
REMARK   44  A    between atoms: _138  and  _139
REMARK   45  A    between atoms: _139  and  _140
REMARK   46  A    between atoms: _143  and  _145
REMARK   47  A    between atoms: _145  and  _146
REMARK   48  A    between atoms: _145  and  _148
REMARK   49  A    between atoms: _148  and  _149
REMARK   50  A    between atoms: _154  and  _156
REMARK   51  A    between atoms: _156  and  _157
REMARK   52  A    between atoms: _156  and  _159
REMARK   53  A    between atoms: _159  and  _160
REMARK   54  A    between atoms: _160  and  _161
REMARK   55  A    between atoms: _164  and  _166
REMARK   56  A    between atoms: _166  and  _167
REMARK   57  A    between atoms: _166  and  _169
REMARK   58  A    between atoms: _169  and  _170
REMARK   59  A    between atoms: _173  and  _175
REMARK   60  A    between atoms: _175  and  _176
REMARK   61  A    between atoms: _175  and  _178
REMARK   62  A    between atoms: _178  and  _179
REMARK   63  A    between atoms: _180  and  ZN_381
REMARK   64  A    between atoms: _184  and  _186
REMARK   65  A    between atoms: _186  and  _187
REMARK   66  A    between atoms: _186  and  _189
REMARK   67  A    between atoms: _189  and  _190
REMARK   68  A    between atoms: _193  and  _195
REMARK   69  A    between atoms: _195  and  _196
REMARK   70  A    between atoms: _195  and  _198
REMARK   71  A    between atoms: _201  and  _203
REMARK   72  A    between atoms: _203  and  _204
REMARK   73  A    between atoms: _203  and  _206
REMARK   74  A    between atoms: _206  and  _207
REMARK   75  A    between atoms: _212  and  _214
REMARK   76  A    between atoms: _214  and  _215
REMARK   77  A    between atoms: _214  and  _217
REMARK   78  A    between atoms: _217  and  _218
REMARK   79  A    between atoms: _224  and  _226
REMARK   80  A    between atoms: _226  and  _227
REMARK   81  A    between atoms: _226  and  _229
REMARK   82  A    between atoms: _232  and  _234
REMARK   83  A    between atoms: _234  and  _235
REMARK   84  A    between atoms: _234  and  _237
REMARK   85  A    between atoms: _237  and  _238
REMARK   86  A    between atoms: _241  and  _243
REMARK   87  A    between atoms: _243  and  _244
REMARK   88  A    between atoms: _247  and  _249
REMARK   89  A    between atoms: _249  and  _250
REMARK   90  A    between atoms: _249  and  _252
REMARK   91  A    between atoms: _255  and  _257
REMARK   92  A    between atoms: _257  and  _258
REMARK   93  A    between atoms: _257  and  _260
REMARK   94  A    between atoms: _260  and  _261
REMARK   95  A    between atoms: _263  and  _265
REMARK   96  A    between atoms: _265  and  _266
REMARK   97  A    between atoms: _265  and  _268
REMARK   98  A    between atoms: _268  and  _269
REMARK   99  A    between atoms: _272  and  _274
REMARK  100  A    between atoms: _274  and  _275
REMARK  101  A    between atoms: _274  and  _277
REMARK  102  A    between atoms: _277  and  _278
REMARK  103  A    between atoms: _281  and  _283
REMARK  104  A    between atoms: _283  and  _284
REMARK  105  A    between atoms: _283  and  _286
REMARK  106  A    between atoms: _286  and  _287
REMARK  107  A    between atoms: _291  and  _292
REMARK  108  A    between atoms: _298  and  _299
REMARK  109  A    between atoms: _304  and  _306
REMARK  110  A    between atoms: _306  and  _307
REMARK  111  A    between atoms: _306  and  _309
REMARK  112  A    between atoms: _309  and  _310
REMARK  113  A    between atoms: _313  and  _315
REMARK  114  A    between atoms: _315  and  _316
REMARK  115  A    between atoms: _315  and  _318
REMARK  116  A    between atoms: _318  and  _319
REMARK  117  A    between atoms: _322  and  _324
REMARK  118  A    between atoms: _324  and  _325
REMARK  119  A    between atoms: _324  and  _327
REMARK  120  A    between atoms: _329  and  _331
REMARK  121  A    between atoms: _331  and  _332
REMARK  122  A    between atoms: _331  and  _334
REMARK  123  A    between atoms: _337  and  _339
REMARK  124  A    between atoms: _339  and  _340
REMARK  125  A    between atoms: _339  and  _342
REMARK  126  A    between atoms: _342  and  _343
REMARK  127  A    between atoms: _353  and  _355
REMARK  128  A    between atoms: _355  and  _356
REMARK  129  A    between atoms: _355  and  _358
REMARK  130  A    between atoms: _358  and  _359
REMARK  131  A    between atoms: _364  and  _366
REMARK  132  A    between atoms: _366  and  _367
REMARK  133  A    between atoms: _366  and  _369
REMARK  134  A    between atoms: _369  and  _370
REMARK  135  A    between atoms: _370  and  _371
REMARK  136  A    between atoms: _371  and  _372
REMARK                            x       y       z     vdW  Elec       q    Type
REMARK                         _______ _______ _______ _____ _____    ______ ____
ROOT
ATOM      1  O   HOH     1      19.957   5.428  13.867  0.00  0.00    +0.000 OA
ENDROOT
TORSDOF 0
REMARK  Name = ../refined-set-2016/3m1k/3m1k_pocket.pdb
REMARK  136 active torsions:
REMARK  status: ('A' for Active; 'I' for Inactive)
REMARK    1  A    between atoms: _1  and  _3
REMARK    2  A    between atoms: _3  and  _4
REMARK    3  A    between atoms: _3  and  _6
REMARK    4  A    between atoms: _6  and  _7
REMARK    5  A    between atoms: _17  and  _19
REMARK    6  A    between atoms: _19  and  _20
REMARK    7  A    between atoms: _19  and  _22
REMARK    8  A    between atoms: _22  and  _23
REMARK    9  A    between atoms: _28  and  _29
REMARK   10  A    between atoms: _31  and  _33
REMARK   11  A    between atoms: _33  and  _34
REMARK   12  A    between atoms: _33  and  _36
REMARK   13  A    between atoms: _36  and  _37
REMARK   14  A    between atoms: _39  and  _41
REMARK   15  A    between atoms: _41  and  _42
REMARK   16  A    between atoms: _41  and  _44
REMARK   17  A    between atoms: _44  and  _45
REMARK   18  A    between atoms: _50  and  _52
REMARK   19  A    between atoms: _52  and  _53
REMARK   20  A    between atoms: _52  and  _55
REMARK   21  A    between atoms: _55  and  _56
REMARK   22  A    between atoms: _61  and  _63
REMARK   23  A    between atoms: _63  and  _64
REMARK   24  A    between atoms: _67  and  _69
REMARK   25  A    between atoms: _69  and  _70
REMARK   26  A    between atoms: _69  and  _72
REMARK   27  A    between atoms: _72  and  _73
REMARK   28  A    between atoms: _78  and  _80
REMARK   29  A    between atoms: _80  and  _81
REMARK   30  A    between atoms: _80  and  _83
REMARK   31  A    between atoms: _83  and  _84
REMARK   32  A    between atoms: _87  and  _89
REMARK   33  A    between atoms: _89  and  _90
REMARK   34  A    between atoms: _89  and  _92
REMARK   35  A    between atoms: _92  and  _93
REMARK   36  A    between atoms: _93  and  _94
REMARK   37  A    between atoms: _99  and  _101
REMARK   38  A    between atoms: _112  and  _115
REMARK   39  A    between atoms: _115  and  _116
REMARK   40  A    between atoms: _124  and  _125
REMARK   41  A    between atoms: _133  and  _135
REMARK   42  A    between atoms: _135  and  _136
REMARK   43  A    between atoms: _135  and  _138
REMARK   44  A    between atoms: _138  and  _139
REMARK   45  A    between atoms: _139  and  _140
REMARK   46  A    between atoms: _143  and  _145
REMARK   47  A    between atoms: _145  and  _146
REMARK   48  A    between atoms: _145  and  _148
REMARK   49  A    between atoms: _148  and  _149
REMARK   50  A    between atoms: _154  and  _156
REMARK   51  A    between atoms: _156  and  _157
REMARK   52  A    between atoms: _156  and  _159
REMARK   53  A    between atoms: _159  and  _160
REMARK   54  A    between atoms: _160  and  _161
REMARK   55  A    between atoms: _164  and  _166
REMARK   56  A    between atoms: _166  and  _167
REMARK   57  A    between atoms: _166  and  _169
REMARK   58  A    between atoms: _169  and  _170
REMARK   59  A    between atoms: _173  and  _175
REMARK   60  A    between atoms: _175  and  _176
REMARK   61  A    between atoms: _175  and  _178
REMARK   62  A    between atoms: _178  and  _179
REMARK   63  A    between atoms: _180  and  ZN_381
REMARK   64  A    between atoms: _184  and  _186
REMARK   65  A    between atoms: _186  and  _187
REMARK   66  A    between atoms: _186  and  _189
REMARK   67  A    between atoms: _189  and  _190
REMARK   68  A    between atoms: _193  and  _195
REMARK   69  A    between atoms: _195  and  _196
REMARK   70  A    between atoms: _195  and  _198
REMARK   71  A    between atoms: _201  and  _203
REMARK   72  A    between atoms: _203  and  _204
REMARK   73  A    between atoms: _203  and  _206
REMARK   74  A    between atoms: _206  and  _207
REMARK   75  A    between atoms: _212  and  _214
REMARK   76  A    between atoms: _214  and  _215
REMARK   77  A    between atoms: _214  and  _217
REMARK   78  A    between atoms: _217  and  _218
REMARK   79  A    between atoms: _224  and  _226
REMARK   80  A    between atoms: _226  and  _227
REMARK   81  A    between atoms: _226  and  _229
REMARK   82  A    between atoms: _232  and  _234
REMARK   83  A    between atoms: _234  and  _235
REMARK   84  A    between atoms: _234  and  _237
REMARK   85  A    between atoms: _237  and  _238
REMARK   86  A    between atoms: _241  and  _243
REMARK   87  A    between atoms: _243  and  _244
REMARK   88  A    between atoms: _247  and  _249
REMARK   89  A    between atoms: _249  and  _250
REMARK   90  A    between atoms: _249  and  _252
REMARK   91  A    between atoms: _255  and  _257
REMARK   92  A    between atoms: _257  and  _258
REMARK   93  A    between atoms: _257  and  _260
REMARK   94  A    between atoms: _260  and  _261
REMARK   95  A    between atoms: _263  and  _265
REMARK   96  A    between atoms: _265  and  _266
REMARK   97  A    between atoms: _265  and  _268
REMARK   98  A    between atoms: _268  and  _269
REMARK   99  A    between atoms: _272  and  _274
REMARK  100  A    between atoms: _274  and  _275
REMARK  101  A    between atoms: _274  and  _277
REMARK  102  A    between atoms: _277  and  _278
REMARK  103  A    between atoms: _281  and  _283
REMARK  104  A    between atoms: _283  and  _284
REMARK  105  A    between atoms: _283  and  _286
REMARK  106  A    between atoms: _286  and  _287
REMARK  107  A    between atoms: _291  and  _292
REMARK  108  A    between atoms: _298  and  _299
REMARK  109  A    between atoms: _304  and  _306
REMARK  110  A    between atoms: _306  and  _307
REMARK  111  A    between atoms: _306  and  _309
REMARK  112  A    between atoms: _309  and  _310
REMARK  113  A    between atoms: _313  and  _315
REMARK  114  A    between atoms: _315  and  _316
REMARK  115  A    between atoms: _315  and  _318
REMARK  116  A    between atoms: _318  and  _319
REMARK  117  A    between atoms: _322  and  _324
REMARK  118  A    between atoms: _324  and  _325
REMARK  119  A    between atoms: _324  and  _327
REMARK  120  A    between atoms: _329  and  _331
REMARK  121  A    between atoms: _331  and  _332
REMARK  122  A    between atoms: _331  and  _334
REMARK  123  A    between atoms: _337  and  _339
REMARK  124  A    between atoms: _339  and  _340
REMARK  125  A    between atoms: _339  and  _342
REMARK  126  A    between atoms: _342  and  _343
REMARK  127  A    between atoms: _353  and  _355
REMARK  128  A    between atoms: _355  and  _356
REMARK  129  A    between atoms: _355  and  _358
REMARK  130  A    between atoms: _358  and  _359
REMARK  131  A    between atoms: _364  and  _366
REMARK  132  A    between atoms: _366  and  _367
REMARK  133  A    between atoms: _366  and  _369
REMARK  134  A    between atoms: _369  and  _370
REMARK  135  A    between atoms: _370  and  _371
REMARK  136  A    between atoms: _371  and  _372
REMARK                            x       y       z     vdW  Elec       q    Type
REMARK                         _______ _______ _______ _____ _____    ______ ____
ROOT
ATOM      1  O   HOH     1      13.060   9.379   8.236  0.00  0.00    +0.000 OA
ENDROOT
TORSDOF 0
REMARK  Name = ../refined-set-2016/3m1k/3m1k_pocket.pdb
REMARK  136 active torsions:
REMARK  status: ('A' for Active; 'I' for Inactive)
REMARK    1  A    between atoms: _1  and  _3
REMARK    2  A    between atoms: _3  and  _4
REMARK    3  A    between atoms: _3  and  _6
REMARK    4  A    between atoms: _6  and  _7
REMARK    5  A    between atoms: _17  and  _19
REMARK    6  A    between atoms: _19  and  _20
REMARK    7  A    between atoms: _19  and  _22
REMARK    8  A    between atoms: _22  and  _23
REMARK    9  A    between atoms: _28  and  _29
REMARK   10  A    between atoms: _31  and  _33
REMARK   11  A    between atoms: _33  and  _34
REMARK   12  A    between atoms: _33  and  _36
REMARK   13  A    between atoms: _36  and  _37
REMARK   14  A    between atoms: _39  and  _41
REMARK   15  A    between atoms: _41  and  _42
REMARK   16  A    between atoms: _41  and  _44
REMARK   17  A    between atoms: _44  and  _45
REMARK   18  A    between atoms: _50  and  _52
REMARK   19  A    between atoms: _52  and  _53
REMARK   20  A    between atoms: _52  and  _55
REMARK   21  A    between atoms: _55  and  _56
REMARK   22  A    between atoms: _61  and  _63
REMARK   23  A    between atoms: _63  and  _64
REMARK   24  A    between atoms: _67  and  _69
REMARK   25  A    between atoms: _69  and  _70
REMARK   26  A    between atoms: _69  and  _72
REMARK   27  A    between atoms: _72  and  _73
REMARK   28  A    between atoms: _78  and  _80
REMARK   29  A    between atoms: _80  and  _81
REMARK   30  A    between atoms: _80  and  _83
REMARK   31  A    between atoms: _83  and  _84
REMARK   32  A    between atoms: _87  and  _89
REMARK   33  A    between atoms: _89  and  _90
REMARK   34  A    between atoms: _89  and  _92
REMARK   35  A    between atoms: _92  and  _93
REMARK   36  A    between atoms: _93  and  _94
REMARK   37  A    between atoms: _99  and  _101
REMARK   38  A    between atoms: _112  and  _115
REMARK   39  A    between atoms: _115  and  _116
REMARK   40  A    between atoms: _124  and  _125
REMARK   41  A    between atoms: _133  and  _135
REMARK   42  A    between atoms: _135  and  _136
REMARK   43  A    between atoms: _135  and  _138
REMARK   44  A    between atoms: _138  and  _139
REMARK   45  A    between atoms: _139  and  _140
REMARK   46  A    between atoms: _143  and  _145
REMARK   47  A    between atoms: _145  and  _146
REMARK   48  A    between atoms: _145  and  _148
REMARK   49  A    between atoms: _148  and  _149
REMARK   50  A    between atoms: _154  and  _156
REMARK   51  A    between atoms: _156  and  _157
REMARK   52  A    between atoms: _156  and  _159
REMARK   53  A    between atoms: _159  and  _160
REMARK   54  A    between atoms: _160  and  _161
REMARK   55  A    between atoms: _164  and  _166
REMARK   56  A    between atoms: _166  and  _167
REMARK   57  A    between atoms: _166  and  _169
REMARK   58  A    between atoms: _169  and  _170
REMARK   59  A    between atoms: _173  and  _175
REMARK   60  A    between atoms: _175  and  _176
REMARK   61  A    between atoms: _175  and  _178
REMARK   62  A    between atoms: _178  and  _179
REMARK   63  A    between atoms: _180  and  ZN_381
REMARK   64  A    between atoms: _184  and  _186
REMARK   65  A    between atoms: _186  and  _187
REMARK   66  A    between atoms: _186  and  _189
REMARK   67  A    between atoms: _189  and  _190
REMARK   68  A    between atoms: _193  and  _195
REMARK   69  A    between atoms: _195  and  _196
REMARK   70  A    between atoms: _195  and  _198
REMARK   71  A    between atoms: _201  and  _203
REMARK   72  A    between atoms: _203  and  _204
REMARK   73  A    between atoms: _203  and  _206
REMARK   74  A    between atoms: _206  and  _207
REMARK   75  A    between atoms: _212  and  _214
REMARK   76  A    between atoms: _214  and  _215
REMARK   77  A    between atoms: _214  and  _217
REMARK   78  A    between atoms: _217  and  _218
REMARK   79  A    between atoms: _224  and  _226
REMARK   80  A    between atoms: _226  and  _227
REMARK   81  A    between atoms: _226  and  _229
REMARK   82  A    between atoms: _232  and  _234
REMARK   83  A    between atoms: _234  and  _235
REMARK   84  A    between atoms: _234  and  _237
REMARK   85  A    between atoms: _237  and  _238
REMARK   86  A    between atoms: _241  and  _243
REMARK   87  A    between atoms: _243  and  _244
REMARK   88  A    between atoms: _247  and  _249
REMARK   89  A    between atoms: _249  and  _250
REMARK   90  A    between atoms: _249  and  _252
REMARK   91  A    between atoms: _255  and  _257
REMARK   92  A    between atoms: _257  and  _258
REMARK   93  A    between atoms: _257  and  _260
REMARK   94  A    between atoms: _260  and  _261
REMARK   95  A    between atoms: _263  and  _265
REMARK   96  A    between atoms: _265  and  _266
REMARK   97  A    between atoms: _265  and  _268
REMARK   98  A    between atoms: _268  and  _269
REMARK   99  A    between atoms: _272  and  _274
REMARK  100  A    between atoms: _274  and  _275
REMARK  101  A    between atoms: _274  and  _277
REMARK  102  A    between atoms: _277  and  _278
REMARK  103  A    between atoms: _281  and  _283
REMARK  104  A    between atoms: _283  and  _284
REMARK  105  A    between atoms: _283  and  _286
REMARK  106  A    between atoms: _286  and  _287
REMARK  107  A    between atoms: _291  and  _292
REMARK  108  A    between atoms: _298  and  _299
REMARK  109  A    between atoms: _304  and  _306
REMARK  110  A    between atoms: _306  and  _307
REMARK  111  A    between atoms: _306  and  _309
REMARK  112  A    between atoms: _309  and  _310
REMARK  113  A    between atoms: _313  and  _315
REMARK  114  A    between atoms: _315  and  _316
REMARK  115  A    between atoms: _315  and  _318
REMARK  116  A    between atoms: _318  and  _319
REMARK  117  A    between atoms: _322  and  _324
REMARK  118  A    between atoms: _324  and  _325
REMARK  119  A    between atoms: _324  and  _327
REMARK  120  A    between atoms: _329  and  _331
REMARK  121  A    between atoms: _331  and  _332
REMARK  122  A    between atoms: _331  and  _334
REMARK  123  A    between atoms: _337  and  _339
REMARK  124  A    between atoms: _339  and  _340
REMARK  125  A    between atoms: _339  and  _342
REMARK  126  A    between atoms: _342  and  _343
REMARK  127  A    between atoms: _353  and  _355
REMARK  128  A    between atoms: _355  and  _356
REMARK  129  A    between atoms: _355  and  _358
REMARK  130  A    between atoms: _358  and  _359
REMARK  131  A    between atoms: _364  and  _366
REMARK  132  A    between atoms: _366  and  _367
REMARK  133  A    between atoms: _366  and  _369
REMARK  134  A    between atoms: _369  and  _370
REMARK  135  A    between atoms: _370  and  _371
REMARK  136  A    between atoms: _371  and  _372
REMARK                            x       y       z     vdW  Elec       q    Type
REMARK                         _______ _______ _______ _____ _____    ______ ____
ROOT
ATOM      1  O   HOH     1      16.841   5.433  10.454  0.00  0.00    +0.000 OA
ENDROOT
TORSDOF 0
REMARK  Name = ../refined-set-2016/3m1k/3m1k_pocket.pdb
REMARK  136 active torsions:
REMARK  status: ('A' for Active; 'I' for Inactive)
REMARK    1  A    between atoms: _1  and  _3
REMARK    2  A    between atoms: _3  and  _4
REMARK    3  A    between atoms: _3  and  _6
REMARK    4  A    between atoms: _6  and  _7
REMARK    5  A    between atoms: _17  and  _19
REMARK    6  A    between atoms: _19  and  _20
REMARK    7  A    between atoms: _19  and  _22
REMARK    8  A    between atoms: _22  and  _23
REMARK    9  A    between atoms: _28  and  _29
REMARK   10  A    between atoms: _31  and  _33
REMARK   11  A    between atoms: _33  and  _34
REMARK   12  A    between atoms: _33  and  _36
REMARK   13  A    between atoms: _36  and  _37
REMARK   14  A    between atoms: _39  and  _41
REMARK   15  A    between atoms: _41  and  _42
REMARK   16  A    between atoms: _41  and  _44
REMARK   17  A    between atoms: _44  and  _45
REMARK   18  A    between atoms: _50  and  _52
REMARK   19  A    between atoms: _52  and  _53
REMARK   20  A    between atoms: _52  and  _55
REMARK   21  A    between atoms: _55  and  _56
REMARK   22  A    between atoms: _61  and  _63
REMARK   23  A    between atoms: _63  and  _64
REMARK   24  A    between atoms: _67  and  _69
REMARK   25  A    between atoms: _69  and  _70
REMARK   26  A    between atoms: _69  and  _72
REMARK   27  A    between atoms: _72  and  _73
REMARK   28  A    between atoms: _78  and  _80
REMARK   29  A    between atoms: _80  and  _81
REMARK   30  A    between atoms: _80  and  _83
REMARK   31  A    between atoms: _83  and  _84
REMARK   32  A    between atoms: _87  and  _89
REMARK   33  A    between atoms: _89  and  _90
REMARK   34  A    between atoms: _89  and  _92
REMARK   35  A    between atoms: _92  and  _93
REMARK   36  A    between atoms: _93  and  _94
REMARK   37  A    between atoms: _99  and  _101
REMARK   38  A    between atoms: _112  and  _115
REMARK   39  A    between atoms: _115  and  _116
REMARK   40  A    between atoms: _124  and  _125
REMARK   41  A    between atoms: _133  and  _135
REMARK   42  A    between atoms: _135  and  _136
REMARK   43  A    between atoms: _135  and  _138
REMARK   44  A    between atoms: _138  and  _139
REMARK   45  A    between atoms: _139  and  _140
REMARK   46  A    between atoms: _143  and  _145
REMARK   47  A    between atoms: _145  and  _146
REMARK   48  A    between atoms: _145  and  _148
REMARK   49  A    between atoms: _148  and  _149
REMARK   50  A    between atoms: _154  and  _156
REMARK   51  A    between atoms: _156  and  _157
REMARK   52  A    between atoms: _156  and  _159
REMARK   53  A    between atoms: _159  and  _160
REMARK   54  A    between atoms: _160  and  _161
REMARK   55  A    between atoms: _164  and  _166
REMARK   56  A    between atoms: _166  and  _167
REMARK   57  A    between atoms: _166  and  _169
REMARK   58  A    between atoms: _169  and  _170
REMARK   59  A    between atoms: _173  and  _175
REMARK   60  A    between atoms: _175  and  _176
REMARK   61  A    between atoms: _175  and  _178
REMARK   62  A    between atoms: _178  and  _179
REMARK   63  A    between atoms: _180  and  ZN_381
REMARK   64  A    between atoms: _184  and  _186
REMARK   65  A    between atoms: _186  and  _187
REMARK   66  A    between atoms: _186  and  _189
REMARK   67  A    between atoms: _189  and  _190
REMARK   68  A    between atoms: _193  and  _195
REMARK   69  A    between atoms: _195  and  _196
REMARK   70  A    between atoms: _195  and  _198
REMARK   71  A    between atoms: _201  and  _203
REMARK   72  A    between atoms: _203  and  _204
REMARK   73  A    between atoms: _203  and  _206
REMARK   74  A    between atoms: _206  and  _207
REMARK   75  A    between atoms: _212  and  _214
REMARK   76  A    between atoms: _214  and  _215
REMARK   77  A    between atoms: _214  and  _217
REMARK   78  A    between atoms: _217  and  _218
REMARK   79  A    between atoms: _224  and  _226
REMARK   80  A    between atoms: _226  and  _227
REMARK   81  A    between atoms: _226  and  _229
REMARK   82  A    between atoms: _232  and  _234
REMARK   83  A    between atoms: _234  and  _235
REMARK   84  A    between atoms: _234  and  _237
REMARK   85  A    between atoms: _237  and  _238
REMARK   86  A    between atoms: _241  and  _243
REMARK   87  A    between atoms: _243  and  _244
REMARK   88  A    between atoms: _247  and  _249
REMARK   89  A    between atoms: _249  and  _250
REMARK   90  A    between atoms: _249  and  _252
REMARK   91  A    between atoms: _255  and  _257
REMARK   92  A    between atoms: _257  and  _258
REMARK   93  A    between atoms: _257  and  _260
REMARK   94  A    between atoms: _260  and  _261
REMARK   95  A    between atoms: _263  and  _265
REMARK   96  A    between atoms: _265  and  _266
REMARK   97  A    between atoms: _265  and  _268
REMARK   98  A    between atoms: _268  and  _269
REMARK   99  A    between atoms: _272  and  _274
REMARK  100  A    between atoms: _274  and  _275
REMARK  101  A    between atoms: _274  and  _277
REMARK  102  A    between atoms: _277  and  _278
REMARK  103  A    between atoms: _281  and  _283
REMARK  104  A    between atoms: _283  and  _284
REMARK  105  A    between atoms: _283  and  _286
REMARK  106  A    between atoms: _286  and  _287
REMARK  107  A    between atoms: _291  and  _292
REMARK  108  A    between atoms: _298  and  _299
REMARK  109  A    between atoms: _304  and  _306
REMARK  110  A    between atoms: _306  and  _307
REMARK  111  A    between atoms: _306  and  _309
REMARK  112  A    between atoms: _309  and  _310
REMARK  113  A    between atoms: _313  and  _315
REMARK  114  A    between atoms: _315  and  _316
REMARK  115  A    between atoms: _315  and  _318
REMARK  116  A    between atoms: _318  and  _319
REMARK  117  A    between atoms: _322  and  _324
REMARK  118  A    between atoms: _324  and  _325
REMARK  119  A    between atoms: _324  and  _327
REMARK  120  A    between atoms: _329  and  _331
REMARK  121  A    between atoms: _331  and  _332
REMARK  122  A    between atoms: _331  and  _334
REMARK  123  A    between atoms: _337  and  _339
REMARK  124  A    between atoms: _339  and  _340
REMARK  125  A    between atoms: _339  and  _342
REMARK  126  A    between atoms: _342  and  _343
REMARK  127  A    between atoms: _353  and  _355
REMARK  128  A    between atoms: _355  and  _356
REMARK  129  A    between atoms: _355  and  _358
REMARK  130  A    between atoms: _358  and  _359
REMARK  131  A    between atoms: _364  and  _366
REMARK  132  A    between atoms: _366  and  _367
REMARK  133  A    between atoms: _366  and  _369
REMARK  134  A    between atoms: _369  and  _370
REMARK  135  A    between atoms: _370  and  _371
REMARK  136  A    between atoms: _371  and  _372
REMARK                            x       y       z     vdW  Elec       q    Type
REMARK                         _______ _______ _______ _____ _____    ______ ____
ROOT
ATOM      1  O   HOH     1      14.387   8.725  10.725  0.00  0.00    +0.000 OA
ENDROOT
TORSDOF 0
REMARK  Name = ../refined-set-2016/3m1k/3m1k_pocket.pdb
REMARK  136 active torsions:
REMARK  status: ('A' for Active; 'I' for Inactive)
REMARK    1  A    between atoms: _1  and  _3
REMARK    2  A    between atoms: _3  and  _4
REMARK    3  A    between atoms: _3  and  _6
REMARK    4  A    between atoms: _6  and  _7
REMARK    5  A    between atoms: _17  and  _19
REMARK    6  A    between atoms: _19  and  _20
REMARK    7  A    between atoms: _19  and  _22
REMARK    8  A    between atoms: _22  and  _23
REMARK    9  A    between atoms: _28  and  _29
REMARK   10  A    between atoms: _31  and  _33
REMARK   11  A    between atoms: _33  and  _34
REMARK   12  A    between atoms: _33  and  _36
REMARK   13  A    between atoms: _36  and  _37
REMARK   14  A    between atoms: _39  and  _41
REMARK   15  A    between atoms: _41  and  _42
REMARK   16  A    between atoms: _41  and  _44
REMARK   17  A    between atoms: _44  and  _45
REMARK   18  A    between atoms: _50  and  _52
REMARK   19  A    between atoms: _52  and  _53
REMARK   20  A    between atoms: _52  and  _55
REMARK   21  A    between atoms: _55  and  _56
REMARK   22  A    between atoms: _61  and  _63
REMARK   23  A    between atoms: _63  and  _64
REMARK   24  A    between atoms: _67  and  _69
REMARK   25  A    between atoms: _69  and  _70
REMARK   26  A    between atoms: _69  and  _72
REMARK   27  A    between atoms: _72  and  _73
REMARK   28  A    between atoms: _78  and  _80
REMARK   29  A    between atoms: _80  and  _81
REMARK   30  A    between atoms: _80  and  _83
REMARK   31  A    between atoms: _83  and  _84
REMARK   32  A    between atoms: _87  and  _89
REMARK   33  A    between atoms: _89  and  _90
REMARK   34  A    between atoms: _89  and  _92
REMARK   35  A    between atoms: _92  and  _93
REMARK   36  A    between atoms: _93  and  _94
REMARK   37  A    between atoms: _99  and  _101
REMARK   38  A    between atoms: _112  and  _115
REMARK   39  A    between atoms: _115  and  _116
REMARK   40  A    between atoms: _124  and  _125
REMARK   41  A    between atoms: _133  and  _135
REMARK   42  A    between atoms: _135  and  _136
REMARK   43  A    between atoms: _135  and  _138
REMARK   44  A    between atoms: _138  and  _139
REMARK   45  A    between atoms: _139  and  _140
REMARK   46  A    between atoms: _143  and  _145
REMARK   47  A    between atoms: _145  and  _146
REMARK   48  A    between atoms: _145  and  _148
REMARK   49  A    between atoms: _148  and  _149
REMARK   50  A    between atoms: _154  and  _156
REMARK   51  A    between atoms: _156  and  _157
REMARK   52  A    between atoms: _156  and  _159
REMARK   53  A    between atoms: _159  and  _160
REMARK   54  A    between atoms: _160  and  _161
REMARK   55  A    between atoms: _164  and  _166
REMARK   56  A    between atoms: _166  and  _167
REMARK   57  A    between atoms: _166  and  _169
REMARK   58  A    between atoms: _169  and  _170
REMARK   59  A    between atoms: _173  and  _175
REMARK   60  A    between atoms: _175  and  _176
REMARK   61  A    between atoms: _175  and  _178
REMARK   62  A    between atoms: _178  and  _179
REMARK   63  A    between atoms: _180  and  ZN_381
REMARK   64  A    between atoms: _184  and  _186
REMARK   65  A    between atoms: _186  and  _187
REMARK   66  A    between atoms: _186  and  _189
REMARK   67  A    between atoms: _189  and  _190
REMARK   68  A    between atoms: _193  and  _195
REMARK   69  A    between atoms: _195  and  _196
REMARK   70  A    between atoms: _195  and  _198
REMARK   71  A    between atoms: _201  and  _203
REMARK   72  A    between atoms: _203  and  _204
REMARK   73  A    between atoms: _203  and  _206
REMARK   74  A    between atoms: _206  and  _207
REMARK   75  A    between atoms: _212  and  _214
REMARK   76  A    between atoms: _214  and  _215
REMARK   77  A    between atoms: _214  and  _217
REMARK   78  A    between atoms: _217  and  _218
REMARK   79  A    between atoms: _224  and  _226
REMARK   80  A    between atoms: _226  and  _227
REMARK   81  A    between atoms: _226  and  _229
REMARK   82  A    between atoms: _232  and  _234
REMARK   83  A    between atoms: _234  and  _235
REMARK   84  A    between atoms: _234  and  _237
REMARK   85  A    between atoms: _237  and  _238
REMARK   86  A    between atoms: _241  and  _243
REMARK   87  A    between atoms: _243  and  _244
REMARK   88  A    between atoms: _247  and  _249
REMARK   89  A    between atoms: _249  and  _250
REMARK   90  A    between atoms: _249  and  _252
REMARK   91  A    between atoms: _255  and  _257
REMARK   92  A    between atoms: _257  and  _258
REMARK   93  A    between atoms: _257  and  _260
REMARK   94  A    between atoms: _260  and  _261
REMARK   95  A    between atoms: _263  and  _265
REMARK   96  A    between atoms: _265  and  _266
REMARK   97  A    between atoms: _265  and  _268
REMARK   98  A    between atoms: _268  and  _269
REMARK   99  A    between atoms: _272  and  _274
REMARK  100  A    between atoms: _274  and  _275
REMARK  101  A    between atoms: _274  and  _277
REMARK  102  A    between atoms: _277  and  _278
REMARK  103  A    between atoms: _281  and  _283
REMARK  104  A    between atoms: _283  and  _284
REMARK  105  A    between atoms: _283  and  _286
REMARK  106  A    between atoms: _286  and  _287
REMARK  107  A    between atoms: _291  and  _292
REMARK  108  A    between atoms: _298  and  _299
REMARK  109  A    between atoms: _304  and  _306
REMARK  110  A    between atoms: _306  and  _307
REMARK  111  A    between atoms: _306  and  _309
REMARK  112  A    between atoms: _309  and  _310
REMARK  113  A    between atoms: _313  and  _315
REMARK  114  A    between atoms: _315  and  _316
REMARK  115  A    between atoms: _315  and  _318
REMARK  116  A    between atoms: _318  and  _319
REMARK  117  A    between atoms: _322  and  _324
REMARK  118  A    between atoms: _324  and  _325
REMARK  119  A    between atoms: _324  and  _327
REMARK  120  A    between atoms: _329  and  _331
REMARK  121  A    between atoms: _331  and  _332
REMARK  122  A    between atoms: _331  and  _334
REMARK  123  A    between atoms: _337  and  _339
REMARK  124  A    between atoms: _339  and  _340
REMARK  125  A    between atoms: _339  and  _342
REMARK  126  A    between atoms: _342  and  _343
REMARK  127  A    between atoms: _353  and  _355
REMARK  128  A    between atoms: _355  and  _356
REMARK  129  A    between atoms: _355  and  _358
REMARK  130  A    between atoms: _358  and  _359
REMARK  131  A    between atoms: _364  and  _366
REMARK  132  A    between atoms: _366  and  _367
REMARK  133  A    between atoms: _366  and  _369
REMARK  134  A    between atoms: _369  and  _370
REMARK  135  A    between atoms: _370  and  _371
REMARK  136  A    between atoms: _371  and  _372
REMARK                            x       y       z     vdW  Elec       q    Type
REMARK                         _______ _______ _______ _____ _____    ______ ____
ROOT
ATOM      1  O   HOH     1      19.026   8.016  13.803  0.00  0.00    +0.000 OA
ENDROOT
TORSDOF 0
REMARK  Name = ../refined-set-2016/3m1k/3m1k_pocket.pdb
REMARK  136 active torsions:
REMARK  status: ('A' for Active; 'I' for Inactive)
REMARK    1  A    between atoms: _1  and  _3
REMARK    2  A    between atoms: _3  and  _4
REMARK    3  A    between atoms: _3  and  _6
REMARK    4  A    between atoms: _6  and  _7
REMARK    5  A    between atoms: _17  and  _19
REMARK    6  A    between atoms: _19  and  _20
REMARK    7  A    between atoms: _19  and  _22
REMARK    8  A    between atoms: _22  and  _23
REMARK    9  A    between atoms: _28  and  _29
REMARK   10  A    between atoms: _31  and  _33
REMARK   11  A    between atoms: _33  and  _34
REMARK   12  A    between atoms: _33  and  _36
REMARK   13  A    between atoms: _36  and  _37
REMARK   14  A    between atoms: _39  and  _41
REMARK   15  A    between atoms: _41  and  _42
REMARK   16  A    between atoms: _41  and  _44
REMARK   17  A    between atoms: _44  and  _45
REMARK   18  A    between atoms: _50  and  _52
REMARK   19  A    between atoms: _52  and  _53
REMARK   20  A    between atoms: _52  and  _55
REMARK   21  A    between atoms: _55  and  _56
REMARK   22  A    between atoms: _61  and  _63
REMARK   23  A    between atoms: _63  and  _64
REMARK   24  A    between atoms: _67  and  _69
REMARK   25  A    between atoms: _69  and  _70
REMARK   26  A    between atoms: _69  and  _72
REMARK   27  A    between atoms: _72  and  _73
REMARK   28  A    between atoms: _78  and  _80
REMARK   29  A    between atoms: _80  and  _81
REMARK   30  A    between atoms: _80  and  _83
REMARK   31  A    between atoms: _83  and  _84
REMARK   32  A    between atoms: _87  and  _89
REMARK   33  A    between atoms: _89  and  _90
REMARK   34  A    between atoms: _89  and  _92
REMARK   35  A    between atoms: _92  and  _93
REMARK   36  A    between atoms: _93  and  _94
REMARK   37  A    between atoms: _99  and  _101
REMARK   38  A    between atoms: _112  and  _115
REMARK   39  A    between atoms: _115  and  _116
REMARK   40  A    between atoms: _124  and  _125
REMARK   41  A    between atoms: _133  and  _135
REMARK   42  A    between atoms: _135  and  _136
REMARK   43  A    between atoms: _135  and  _138
REMARK   44  A    between atoms: _138  and  _139
REMARK   45  A    between atoms: _139  and  _140
REMARK   46  A    between atoms: _143  and  _145
REMARK   47  A    between atoms: _145  and  _146
REMARK   48  A    between atoms: _145  and  _148
REMARK   49  A    between atoms: _148  and  _149
REMARK   50  A    between atoms: _154  and  _156
REMARK   51  A    between atoms: _156  and  _157
REMARK   52  A    between atoms: _156  and  _159
REMARK   53  A    between atoms: _159  and  _160
REMARK   54  A    between atoms: _160  and  _161
REMARK   55  A    between atoms: _164  and  _166
REMARK   56  A    between atoms: _166  and  _167
REMARK   57  A    between atoms: _166  and  _169
REMARK   58  A    between atoms: _169  and  _170
REMARK   59  A    between atoms: _173  and  _175
REMARK   60  A    between atoms: _175  and  _176
REMARK   61  A    between atoms: _175  and  _178
REMARK   62  A    between atoms: _178  and  _179
REMARK   63  A    between atoms: _180  and  ZN_381
REMARK   64  A    between atoms: _184  and  _186
REMARK   65  A    between atoms: _186  and  _187
REMARK   66  A    between atoms: _186  and  _189
REMARK   67  A    between atoms: _189  and  _190
REMARK   68  A    between atoms: _193  and  _195
REMARK   69  A    between atoms: _195  and  _196
REMARK   70  A    between atoms: _195  and  _198
REMARK   71  A    between atoms: _201  and  _203
REMARK   72  A    between atoms: _203  and  _204
REMARK   73  A    between atoms: _203  and  _206
REMARK   74  A    between atoms: _206  and  _207
REMARK   75  A    between atoms: _212  and  _214
REMARK   76  A    between atoms: _214  and  _215
REMARK   77  A    between atoms: _214  and  _217
REMARK   78  A    between atoms: _217  and  _218
REMARK   79  A    between atoms: _224  and  _226
REMARK   80  A    between atoms: _226  and  _227
REMARK   81  A    between atoms: _226  and  _229
REMARK   82  A    between atoms: _232  and  _234
REMARK   83  A    between atoms: _234  and  _235
REMARK   84  A    between atoms: _234  and  _237
REMARK   85  A    between atoms: _237  and  _238
REMARK   86  A    between atoms: _241  and  _243
REMARK   87  A    between atoms: _243  and  _244
REMARK   88  A    between atoms: _247  and  _249
REMARK   89  A    between atoms: _249  and  _250
REMARK   90  A    between atoms: _249  and  _252
REMARK   91  A    between atoms: _255  and  _257
REMARK   92  A    between atoms: _257  and  _258
REMARK   93  A    between atoms: _257  and  _260
REMARK   94  A    between atoms: _260  and  _261
REMARK   95  A    between atoms: _263  and  _265
REMARK   96  A    between atoms: _265  and  _266
REMARK   97  A    between atoms: _265  and  _268
REMARK   98  A    between atoms: _268  and  _269
REMARK   99  A    between atoms: _272  and  _274
REMARK  100  A    between atoms: _274  and  _275
REMARK  101  A    between atoms: _274  and  _277
REMARK  102  A    between atoms: _277  and  _278
REMARK  103  A    between atoms: _281  and  _283
REMARK  104  A    between atoms: _283  and  _284
REMARK  105  A    between atoms: _283  and  _286
REMARK  106  A    between atoms: _286  and  _287
REMARK  107  A    between atoms: _291  and  _292
REMARK  108  A    between atoms: _298  and  _299
REMARK  109  A    between atoms: _304  and  _306
REMARK  110  A    between atoms: _306  and  _307
REMARK  111  A    between atoms: _306  and  _309
REMARK  112  A    between atoms: _309  and  _310
REMARK  113  A    between atoms: _313  and  _315
REMARK  114  A    between atoms: _315  and  _316
REMARK  115  A    between atoms: _315  and  _318
REMARK  116  A    between atoms: _318  and  _319
REMARK  117  A    between atoms: _322  and  _324
REMARK  118  A    between atoms: _324  and  _325
REMARK  119  A    between atoms: _324  and  _327
REMARK  120  A    between atoms: _329  and  _331
REMARK  121  A    between atoms: _331  and  _332
REMARK  122  A    between atoms: _331  and  _334
REMARK  123  A    between atoms: _337  and  _339
REMARK  124  A    between atoms: _339  and  _340
REMARK  125  A    between atoms: _339  and  _342
REMARK  126  A    between atoms: _342  and  _343
REMARK  127  A    between atoms: _353  and  _355
REMARK  128  A    between atoms: _355  and  _356
REMARK  129  A    between atoms: _355  and  _358
REMARK  130  A    between atoms: _358  and  _359
REMARK  131  A    between atoms: _364  and  _366
REMARK  132  A    between atoms: _366  and  _367
REMARK  133  A    between atoms: _366  and  _369
REMARK  134  A    between atoms: _369  and  _370
REMARK  135  A    between atoms: _370  and  _371
REMARK  136  A    between atoms: _371  and  _372
REMARK                            x       y       z     vdW  Elec       q    Type
REMARK                         _______ _______ _______ _____ _____    ______ ____
ROOT
ATOM      1  O   HOH     1      19.535   4.945  11.444  0.00  0.00    +0.000 OA
ENDROOT
TORSDOF 0
REMARK  Name = ../refined-set-2016/3m1k/3m1k_pocket.pdb
REMARK  136 active torsions:
REMARK  status: ('A' for Active; 'I' for Inactive)
REMARK    1  A    between atoms: _1  and  _3
REMARK    2  A    between atoms: _3  and  _4
REMARK    3  A    between atoms: _3  and  _6
REMARK    4  A    between atoms: _6  and  _7
REMARK    5  A    between atoms: _17  and  _19
REMARK    6  A    between atoms: _19  and  _20
REMARK    7  A    between atoms: _19  and  _22
REMARK    8  A    between atoms: _22  and  _23
REMARK    9  A    between atoms: _28  and  _29
REMARK   10  A    between atoms: _31  and  _33
REMARK   11  A    between atoms: _33  and  _34
REMARK   12  A    between atoms: _33  and  _36
REMARK   13  A    between atoms: _36  and  _37
REMARK   14  A    between atoms: _39  and  _41
REMARK   15  A    between atoms: _41  and  _42
REMARK   16  A    between atoms: _41  and  _44
REMARK   17  A    between atoms: _44  and  _45
REMARK   18  A    between atoms: _50  and  _52
REMARK   19  A    between atoms: _52  and  _53
REMARK   20  A    between atoms: _52  and  _55
REMARK   21  A    between atoms: _55  and  _56
REMARK   22  A    between atoms: _61  and  _63
REMARK   23  A    between atoms: _63  and  _64
REMARK   24  A    between atoms: _67  and  _69
REMARK   25  A    between atoms: _69  and  _70
REMARK   26  A    between atoms: _69  and  _72
REMARK   27  A    between atoms: _72  and  _73
REMARK   28  A    between atoms: _78  and  _80
REMARK   29  A    between atoms: _80  and  _81
REMARK   30  A    between atoms: _80  and  _83
REMARK   31  A    between atoms: _83  and  _84
REMARK   32  A    between atoms: _87  and  _89
REMARK   33  A    between atoms: _89  and  _90
REMARK   34  A    between atoms: _89  and  _92
REMARK   35  A    between atoms: _92  and  _93
REMARK   36  A    between atoms: _93  and  _94
REMARK   37  A    between atoms: _99  and  _101
REMARK   38  A    between atoms: _112  and  _115
REMARK   39  A    between atoms: _115  and  _116
REMARK   40  A    between atoms: _124  and  _125
REMARK   41  A    between atoms: _133  and  _135
REMARK   42  A    between atoms: _135  and  _136
REMARK   43  A    between atoms: _135  and  _138
REMARK   44  A    between atoms: _138  and  _139
REMARK   45  A    between atoms: _139  and  _140
REMARK   46  A    between atoms: _143  and  _145
REMARK   47  A    between atoms: _145  and  _146
REMARK   48  A    between atoms: _145  and  _148
REMARK   49  A    between atoms: _148  and  _149
REMARK   50  A    between atoms: _154  and  _156
REMARK   51  A    between atoms: _156  and  _157
REMARK   52  A    between atoms: _156  and  _159
REMARK   53  A    between atoms: _159  and  _160
REMARK   54  A    between atoms: _160  and  _161
REMARK   55  A    between atoms: _164  and  _166
REMARK   56  A    between atoms: _166  and  _167
REMARK   57  A    between atoms: _166  and  _169
REMARK   58  A    between atoms: _169  and  _170
REMARK   59  A    between atoms: _173  and  _175
REMARK   60  A    between atoms: _175  and  _176
REMARK   61  A    between atoms: _175  and  _178
REMARK   62  A    between atoms: _178  and  _179
REMARK   63  A    between atoms: _180  and  ZN_381
REMARK   64  A    between atoms: _184  and  _186
REMARK   65  A    between atoms: _186  and  _187
REMARK   66  A    between atoms: _186  and  _189
REMARK   67  A    between atoms: _189  and  _190
REMARK   68  A    between atoms: _193  and  _195
REMARK   69  A    between atoms: _195  and  _196
REMARK   70  A    between atoms: _195  and  _198
REMARK   71  A    between atoms: _201  and  _203
REMARK   72  A    between atoms: _203  and  _204
REMARK   73  A    between atoms: _203  and  _206
REMARK   74  A    between atoms: _206  and  _207
REMARK   75  A    between atoms: _212  and  _214
REMARK   76  A    between atoms: _214  and  _215
REMARK   77  A    between atoms: _214  and  _217
REMARK   78  A    between atoms: _217  and  _218
REMARK   79  A    between atoms: _224  and  _226
REMARK   80  A    between atoms: _226  and  _227
REMARK   81  A    between atoms: _226  and  _229
REMARK   82  A    between atoms: _232  and  _234
REMARK   83  A    between atoms: _234  and  _235
REMARK   84  A    between atoms: _234  and  _237
REMARK   85  A    between atoms: _237  and  _238
REMARK   86  A    between atoms: _241  and  _243
REMARK   87  A    between atoms: _243  and  _244
REMARK   88  A    between atoms: _247  and  _249
REMARK   89  A    between atoms: _249  and  _250
REMARK   90  A    between atoms: _249  and  _252
REMARK   91  A    between atoms: _255  and  _257
REMARK   92  A    between atoms: _257  and  _258
REMARK   93  A    between atoms: _257  and  _260
REMARK   94  A    between atoms: _260  and  _261
REMARK   95  A    between atoms: _263  and  _265
REMARK   96  A    between atoms: _265  and  _266
REMARK   97  A    between atoms: _265  and  _268
REMARK   98  A    between atoms: _268  and  _269
REMARK   99  A    between atoms: _272  and  _274
REMARK  100  A    between atoms: _274  and  _275
REMARK  101  A    between atoms: _274  and  _277
REMARK  102  A    between atoms: _277  and  _278
REMARK  103  A    between atoms: _281  and  _283
REMARK  104  A    between atoms: _283  and  _284
REMARK  105  A    between atoms: _283  and  _286
REMARK  106  A    between atoms: _286  and  _287
REMARK  107  A    between atoms: _291  and  _292
REMARK  108  A    between atoms: _298  and  _299
REMARK  109  A    between atoms: _304  and  _306
REMARK  110  A    between atoms: _306  and  _307
REMARK  111  A    between atoms: _306  and  _309
REMARK  112  A    between atoms: _309  and  _310
REMARK  113  A    between atoms: _313  and  _315
REMARK  114  A    between atoms: _315  and  _316
REMARK  115  A    between atoms: _315  and  _318
REMARK  116  A    between atoms: _318  and  _319
REMARK  117  A    between atoms: _322  and  _324
REMARK  118  A    between atoms: _324  and  _325
REMARK  119  A    between atoms: _324  and  _327
REMARK  120  A    between atoms: _329  and  _331
REMARK  121  A    between atoms: _331  and  _332
REMARK  122  A    between atoms: _331  and  _334
REMARK  123  A    between atoms: _337  and  _339
REMARK  124  A    between atoms: _339  and  _340
REMARK  125  A    between atoms: _339  and  _342
REMARK  126  A    between atoms: _342  and  _343
REMARK  127  A    between atoms: _353  and  _355
REMARK  128  A    between atoms: _355  and  _356
REMARK  129  A    between atoms: _355  and  _358
REMARK  130  A    between atoms: _358  and  _359
REMARK  131  A    between atoms: _364  and  _366
REMARK  132  A    between atoms: _366  and  _367
REMARK  133  A    between atoms: _366  and  _369
REMARK  134  A    between atoms: _369  and  _370
REMARK  135  A    between atoms: _370  and  _371
REMARK  136  A    between atoms: _371  and  _372
REMARK                            x       y       z     vdW  Elec       q    Type
REMARK                         _______ _______ _______ _____ _____    ______ ____
ROOT
ATOM      1  O   HOH     1      16.423   8.096  12.001  0.00  0.00    +0.000 OA
ENDROOT
TORSDOF 0
