REMARK  Name = ../refined-set-2016/1gnm/1gnm_pocket.pdb
REMARK  215 active torsions:
REMARK  status: ('A' for Active; 'I' for Inactive)
REMARK    1  A    between atoms: _1  and  _3
REMARK    2  A    between atoms: _3  and  _4
REMARK    3  A    between atoms: _3  and  _6
REMARK    4  A    between atoms: _6  and  _7
REMARK    5  A    between atoms: _7  and  _8
REMARK    6  A    between atoms: _8  and  _9
REMARK    7  A    between atoms: _18  and  _20
REMARK    8  A    between atoms: _20  and  _21
REMARK    9  A    between atoms: _20  and  _23
REMARK   10  A    between atoms: _23  and  _24
REMARK   11  A    between atoms: _27  and  _29
REMARK   12  A    between atoms: _29  and  _30
REMARK   13  A    between atoms: _29  and  _32
REMARK   14  A    between atoms: _32  and  _33
REMARK   15  A    between atoms: _36  and  _38
REMARK   16  A    between atoms: _38  and  _39
REMARK   17  A    between atoms: _38  and  _41
REMARK   18  A    between atoms: _41  and  _42
REMARK   19  A    between atoms: _45  and  _47
REMARK   20  A    between atoms: _47  and  _48
REMARK   21  A    between atoms: _47  and  _50
REMARK   22  A    between atoms: _50  and  _51
REMARK   23  A    between atoms: _54  and  _56
REMARK   24  A    between atoms: _56  and  _57
REMARK   25  A    between atoms: _56  and  _59
REMARK   26  A    between atoms: _59  and  _60
REMARK   27  A    between atoms: _63  and  _65
REMARK   28  A    between atoms: _65  and  _66
REMARK   29  A    between atoms: _68  and  _70
REMARK   30  A    between atoms: _70  and  _71
REMARK   31  A    between atoms: _74  and  _76
REMARK   32  A    between atoms: _76  and  _77
REMARK   33  A    between atoms: _76  and  _79
REMARK   34  A    between atoms: _79  and  _80
REMARK   35  A    between atoms: _83  and  _85
REMARK   36  A    between atoms: _85  and  _86
REMARK   37  A    between atoms: _85  and  _88
REMARK   38  A    between atoms: _88  and  _89
REMARK   39  A    between atoms: _92  and  _94
REMARK   40  A    between atoms: _94  and  _95
REMARK   41  A    between atoms: _94  and  _97
REMARK   42  A    between atoms: _97  and  _98
REMARK   43  A    between atoms: _101  and  _103
REMARK   44  A    between atoms: _103  and  _104
REMARK   45  A    between atoms: _103  and  _106
REMARK   46  A    between atoms: _109  and  _111
REMARK   47  A    between atoms: _111  and  _112
REMARK   48  A    between atoms: _111  and  _114
REMARK   49  A    between atoms: _114  and  _115
REMARK   50  A    between atoms: _118  and  _120
REMARK   51  A    between atoms: _120  and  _121
REMARK   52  A    between atoms: _123  and  _125
REMARK   53  A    between atoms: _125  and  _126
REMARK   54  A    between atoms: _128  and  _130
REMARK   55  A    between atoms: _130  and  _131
REMARK   56  A    between atoms: _130  and  _133
REMARK   57  A    between atoms: _133  and  _134
REMARK   58  A    between atoms: _137  and  _139
REMARK   59  A    between atoms: _139  and  _140
REMARK   60  A    between atoms: _142  and  _144
REMARK   61  A    between atoms: _144  and  _145
REMARK   62  A    between atoms: _147  and  _149
REMARK   63  A    between atoms: _149  and  _150
REMARK   64  A    between atoms: _149  and  _152
REMARK   65  A    between atoms: _152  and  _153
REMARK   66  A    between atoms: _156  and  _158
REMARK   67  A    between atoms: _158  and  _159
REMARK   68  A    between atoms: _158  and  _161
REMARK   69  A    between atoms: _161  and  _162
REMARK   70  A    between atoms: _165  and  _167
REMARK   71  A    between atoms: _167  and  _168
REMARK   72  A    between atoms: _167  and  _170
REMARK   73  A    between atoms: _170  and  _171
REMARK   74  A    between atoms: _175  and  _176
REMARK   75  A    between atoms: _181  and  _183
REMARK   76  A    between atoms: _183  and  _184
REMARK   77  A    between atoms: _183  and  _186
REMARK   78  A    between atoms: _186  and  _187
REMARK   79  A    between atoms: _190  and  _192
REMARK   80  A    between atoms: _192  and  _193
REMARK   81  A    between atoms: _192  and  _195
REMARK   82  A    between atoms: _195  and  _196
REMARK   83  A    between atoms: _201  and  _203
REMARK   84  A    between atoms: _203  and  _204
REMARK   85  A    between atoms: _203  and  _206
REMARK   86  A    between atoms: _206  and  _207
REMARK   87  A    between atoms: _210  and  _212
REMARK   88  A    between atoms: _212  and  _213
REMARK   89  A    between atoms: _212  and  _215
REMARK   90  A    between atoms: _215  and  _216
REMARK   91  A    between atoms: _219  and  _221
REMARK   92  A    between atoms: _221  and  _222
REMARK   93  A    between atoms: _224  and  _226
REMARK   94  A    between atoms: _226  and  _227
REMARK   95  A    between atoms: _226  and  _229
REMARK   96  A    between atoms: _229  and  _230
REMARK   97  A    between atoms: _230  and  _231
REMARK   98  A    between atoms: _231  and  _232
REMARK   99  A    between atoms: _241  and  _243
REMARK  100  A    between atoms: _243  and  _244
REMARK  101  A    between atoms: _243  and  _246
REMARK  102  A    between atoms: _246  and  _247
REMARK  103  A    between atoms: _247  and  _248
REMARK  104  A    between atoms: _248  and  _249
REMARK  105  A    between atoms: _258  and  _260
REMARK  106  A    between atoms: _260  and  _261
REMARK  107  A    between atoms: _260  and  _263
REMARK  108  A    between atoms: _263  and  _264
REMARK  109  A    between atoms: _267  and  _269
REMARK  110  A    between atoms: _269  and  _270
REMARK  111  A    between atoms: _269  and  _272
REMARK  112  A    between atoms: _272  and  _273
REMARK  113  A    between atoms: _276  and  _278
REMARK  114  A    between atoms: _278  and  _279
REMARK  115  A    between atoms: _278  and  _281
REMARK  116  A    between atoms: _281  and  _282
REMARK  117  A    between atoms: _285  and  _287
REMARK  118  A    between atoms: _287  and  _288
REMARK  119  A    between atoms: _287  and  _290
REMARK  120  A    between atoms: _290  and  _291
REMARK  121  A    between atoms: _294  and  _296
REMARK  122  A    between atoms: _296  and  _297
REMARK  123  A    between atoms: _299  and  _301
REMARK  124  A    between atoms: _301  and  _302
REMARK  125  A    between atoms: _305  and  _307
REMARK  126  A    between atoms: _307  and  _308
REMARK  127  A    between atoms: _307  and  _310
REMARK  128  A    between atoms: _310  and  _311
REMARK  129  A    between atoms: _314  and  _316
REMARK  130  A    between atoms: _316  and  _317
REMARK  131  A    between atoms: _316  and  _319
REMARK  132  A    between atoms: _319  and  _320
REMARK  133  A    between atoms: _323  and  _325
REMARK  134  A    between atoms: _325  and  _326
REMARK  135  A    between atoms: _325  and  _328
REMARK  136  A    between atoms: _328  and  _329
REMARK  137  A    between atoms: _332  and  _334
REMARK  138  A    between atoms: _334  and  _335
REMARK  139  A    between atoms: _334  and  _337
REMARK  140  A    between atoms: _340  and  _342
REMARK  141  A    between atoms: _342  and  _343
REMARK  142  A    between atoms: _342  and  _345
REMARK  143  A    between atoms: _345  and  _346
REMARK  144  A    between atoms: _346  and  _347
REMARK  145  A    between atoms: _347  and  _348
REMARK  146  A    between atoms: _348  and  _349
REMARK  147  A    between atoms: _353  and  _355
REMARK  148  A    between atoms: _355  and  _356
REMARK  149  A    between atoms: _355  and  _358
REMARK  150  A    between atoms: _358  and  _359
REMARK  151  A    between atoms: _359  and  _360
REMARK  152  A    between atoms: _362  and  _364
REMARK  153  A    between atoms: _364  and  _365
REMARK  154  A    between atoms: _364  and  _367
REMARK  155  A    between atoms: _367  and  _368
REMARK  156  A    between atoms: _371  and  _373
REMARK  157  A    between atoms: _373  and  _374
REMARK  158  A    between atoms: _376  and  _378
REMARK  159  A    between atoms: _378  and  _379
REMARK  160  A    between atoms: _381  and  _383
REMARK  161  A    between atoms: _383  and  _384
REMARK  162  A    between atoms: _383  and  _386
REMARK  163  A    between atoms: _386  and  _387
REMARK  164  A    between atoms: _390  and  _392
REMARK  165  A    between atoms: _392  and  _393
REMARK  166  A    between atoms: _395  and  _397
REMARK  167  A    between atoms: _397  and  _398
REMARK  168  A    between atoms: _400  and  _402
REMARK  169  A    between atoms: _402  and  _403
REMARK  170  A    between atoms: _402  and  _405
REMARK  171  A    between atoms: _405  and  _406
REMARK  172  A    between atoms: _412  and  _414
REMARK  173  A    between atoms: _414  and  _415
REMARK  174  A    between atoms: _414  and  _417
REMARK  175  A    between atoms: _417  and  _418
REMARK  176  A    between atoms: _421  and  _423
REMARK  177  A    between atoms: _423  and  _424
REMARK  178  A    between atoms: _423  and  _426
REMARK  179  A    between atoms: _429  and  _431
REMARK  180  A    between atoms: _431  and  _432
REMARK  181  A    between atoms: _431  and  _434
REMARK  182  A    between atoms: _434  and  _435
REMARK  183  A    between atoms: _438  and  _440
REMARK  184  A    between atoms: _440  and  _441
REMARK  185  A    between atoms: _440  and  _443
REMARK  186  A    between atoms: _443  and  _444
REMARK  187  A    between atoms: _448  and  _449
REMARK  188  A    between atoms: _454  and  _456
REMARK  189  A    between atoms: _456  and  _457
REMARK  190  A    between atoms: _456  and  _459
REMARK  191  A    between atoms: _459  and  _460
REMARK  192  A    between atoms: _463  and  _465
REMARK  193  A    between atoms: _465  and  _466
REMARK  194  A    between atoms: _465  and  _468
REMARK  195  A    between atoms: _468  and  _469
REMARK  196  A    between atoms: _474  and  _476
REMARK  197  A    between atoms: _476  and  _477
REMARK  198  A    between atoms: _476  and  _479
REMARK  199  A    between atoms: _479  and  _480
REMARK  200  A    between atoms: _483  and  _485
REMARK  201  A    between atoms: _485  and  _486
REMARK  202  A    between atoms: _485  and  _488
REMARK  203  A    between atoms: _488  and  _489
REMARK  204  A    between atoms: _492  and  _494
REMARK  205  A    between atoms: _494  and  _495
REMARK  206  A    between atoms: _497  and  _499
REMARK  207  A    between atoms: _499  and  _500
REMARK  208  A    between atoms: _499  and  _502
REMARK  209  A    between atoms: _502  and  _503
REMARK  210  A    between atoms: _503  and  _504
REMARK  211  A    between atoms: _504  and  _505
REMARK  212  A    between atoms: _514  and  _516
REMARK  213  A    between atoms: _516  and  _517
REMARK  214  A    between atoms: _516  and  _519
REMARK  215  A    between atoms: _519  and  _520
REMARK                            x       y       z     vdW  Elec       q    Type
REMARK                         _______ _______ _______ _____ _____    ______ ____
ROOT
ATOM      1  NE  ARG A   1      -3.894  23.558  22.165  0.00  0.00    -0.265 N 
ATOM      2  CZ  ARG A   1      -2.855  22.775  21.854  0.00  0.00    +0.342 C 
ATOM      3  NH2 ARG A   1      -1.610  23.121  22.206  0.00  0.00    -0.292 N 
ATOM      4 HH21 ARG A   1      -1.444  24.006  22.726  0.00  0.00    +0.255 HD
ATOM      5 HH22 ARG A   1      -0.810  22.505  21.959  0.00  0.00    +0.255 HD
ATOM      6  NH1 ARG A   1      -2.984  21.566  21.264  0.00  0.00    -0.292 N 
ATOM      7 HH11 ARG A   1      -2.139  21.001  21.046  0.00  0.00    +0.255 HD
ATOM      8 HH12 ARG A   1      -3.929  21.201  21.028  0.00  0.00    +0.255 HD
ATOM      9  HE  ARG A   1      -4.789  23.157  21.817  0.00  0.00    +0.259 HD
ENDROOT
BRANCH   1  10
ATOM     10  CD  ARG A   1      -4.110  24.813  22.855  0.00  0.00    +0.174 C 
BRANCH  10  11
ATOM     11  CG  ARG A   1      -5.233  25.692  22.308  0.00  0.00    +0.045 C 
BRANCH  11  12
ATOM     12  CB  ARG A   1      -5.155  27.129  22.824  0.00  0.00    +0.029 C 
BRANCH  12  13
ATOM     13  CA  ARG A   1      -6.314  28.055  22.507  0.00  0.00    +0.133 C 
BRANCH  13  14
ATOM     14  N   ARG A   1      -6.034  28.804  21.239  0.00  0.00    -0.239 NA
ATOM     15  H   ARG A   1      -5.112  28.734  20.762  0.00  0.00    +0.142 HD
ENDBRANCH  13  14
BRANCH  13  16
ATOM     16  C   ARG A   1      -6.565  29.084  23.607  0.00  0.00    +0.224 C 
ATOM     17  O   ARG A   1      -5.893  30.154  23.551  0.00  0.00    -0.287 OA
ENDBRANCH  13  16
ENDBRANCH  12  13
ENDBRANCH  11  12
ENDBRANCH  10  11
ENDBRANCH   1  10
TORSDOF 6
REMARK  Name = ../refined-set-2016/1gnm/1gnm_pocket.pdb
REMARK  215 active torsions:
REMARK  status: ('A' for Active; 'I' for Inactive)
REMARK    1  A    between atoms: _1  and  _3
REMARK    2  A    between atoms: _3  and  _4
REMARK    3  A    between atoms: _3  and  _6
REMARK    4  A    between atoms: _6  and  _7
REMARK    5  A    between atoms: _7  and  _8
REMARK    6  A    between atoms: _8  and  _9
REMARK    7  A    between atoms: _18  and  _20
REMARK    8  A    between atoms: _20  and  _21
REMARK    9  A    between atoms: _20  and  _23
REMARK   10  A    between atoms: _23  and  _24
REMARK   11  A    between atoms: _27  and  _29
REMARK   12  A    between atoms: _29  and  _30
REMARK   13  A    between atoms: _29  and  _32
REMARK   14  A    between atoms: _32  and  _33
REMARK   15  A    between atoms: _36  and  _38
REMARK   16  A    between atoms: _38  and  _39
REMARK   17  A    between atoms: _38  and  _41
REMARK   18  A    between atoms: _41  and  _42
REMARK   19  A    between atoms: _45  and  _47
REMARK   20  A    between atoms: _47  and  _48
REMARK   21  A    between atoms: _47  and  _50
REMARK   22  A    between atoms: _50  and  _51
REMARK   23  A    between atoms: _54  and  _56
REMARK   24  A    between atoms: _56  and  _57
REMARK   25  A    between atoms: _56  and  _59
REMARK   26  A    between atoms: _59  and  _60
REMARK   27  A    between atoms: _63  and  _65
REMARK   28  A    between atoms: _65  and  _66
REMARK   29  A    between atoms: _68  and  _70
REMARK   30  A    between atoms: _70  and  _71
REMARK   31  A    between atoms: _74  and  _76
REMARK   32  A    between atoms: _76  and  _77
REMARK   33  A    between atoms: _76  and  _79
REMARK   34  A    between atoms: _79  and  _80
REMARK   35  A    between atoms: _83  and  _85
REMARK   36  A    between atoms: _85  and  _86
REMARK   37  A    between atoms: _85  and  _88
REMARK   38  A    between atoms: _88  and  _89
REMARK   39  A    between atoms: _92  and  _94
REMARK   40  A    between atoms: _94  and  _95
REMARK   41  A    between atoms: _94  and  _97
REMARK   42  A    between atoms: _97  and  _98
REMARK   43  A    between atoms: _101  and  _103
REMARK   44  A    between atoms: _103  and  _104
REMARK   45  A    between atoms: _103  and  _106
REMARK   46  A    between atoms: _109  and  _111
REMARK   47  A    between atoms: _111  and  _112
REMARK   48  A    between atoms: _111  and  _114
REMARK   49  A    between atoms: _114  and  _115
REMARK   50  A    between atoms: _118  and  _120
REMARK   51  A    between atoms: _120  and  _121
REMARK   52  A    between atoms: _123  and  _125
REMARK   53  A    between atoms: _125  and  _126
REMARK   54  A    between atoms: _128  and  _130
REMARK   55  A    between atoms: _130  and  _131
REMARK   56  A    between atoms: _130  and  _133
REMARK   57  A    between atoms: _133  and  _134
REMARK   58  A    between atoms: _137  and  _139
REMARK   59  A    between atoms: _139  and  _140
REMARK   60  A    between atoms: _142  and  _144
REMARK   61  A    between atoms: _144  and  _145
REMARK   62  A    between atoms: _147  and  _149
REMARK   63  A    between atoms: _149  and  _150
REMARK   64  A    between atoms: _149  and  _152
REMARK   65  A    between atoms: _152  and  _153
REMARK   66  A    between atoms: _156  and  _158
REMARK   67  A    between atoms: _158  and  _159
REMARK   68  A    between atoms: _158  and  _161
REMARK   69  A    between atoms: _161  and  _162
REMARK   70  A    between atoms: _165  and  _167
REMARK   71  A    between atoms: _167  and  _168
REMARK   72  A    between atoms: _167  and  _170
REMARK   73  A    between atoms: _170  and  _171
REMARK   74  A    between atoms: _175  and  _176
REMARK   75  A    between atoms: _181  and  _183
REMARK   76  A    between atoms: _183  and  _184
REMARK   77  A    between atoms: _183  and  _186
REMARK   78  A    between atoms: _186  and  _187
REMARK   79  A    between atoms: _190  and  _192
REMARK   80  A    between atoms: _192  and  _193
REMARK   81  A    between atoms: _192  and  _195
REMARK   82  A    between atoms: _195  and  _196
REMARK   83  A    between atoms: _201  and  _203
REMARK   84  A    between atoms: _203  and  _204
REMARK   85  A    between atoms: _203  and  _206
REMARK   86  A    between atoms: _206  and  _207
REMARK   87  A    between atoms: _210  and  _212
REMARK   88  A    between atoms: _212  and  _213
REMARK   89  A    between atoms: _212  and  _215
REMARK   90  A    between atoms: _215  and  _216
REMARK   91  A    between atoms: _219  and  _221
REMARK   92  A    between atoms: _221  and  _222
REMARK   93  A    between atoms: _224  and  _226
REMARK   94  A    between atoms: _226  and  _227
REMARK   95  A    between atoms: _226  and  _229
REMARK   96  A    between atoms: _229  and  _230
REMARK   97  A    between atoms: _230  and  _231
REMARK   98  A    between atoms: _231  and  _232
REMARK   99  A    between atoms: _241  and  _243
REMARK  100  A    between atoms: _243  and  _244
REMARK  101  A    between atoms: _243  and  _246
REMARK  102  A    between atoms: _246  and  _247
REMARK  103  A    between atoms: _247  and  _248
REMARK  104  A    between atoms: _248  and  _249
REMARK  105  A    between atoms: _258  and  _260
REMARK  106  A    between atoms: _260  and  _261
REMARK  107  A    between atoms: _260  and  _263
REMARK  108  A    between atoms: _263  and  _264
REMARK  109  A    between atoms: _267  and  _269
REMARK  110  A    between atoms: _269  and  _270
REMARK  111  A    between atoms: _269  and  _272
REMARK  112  A    between atoms: _272  and  _273
REMARK  113  A    between atoms: _276  and  _278
REMARK  114  A    between atoms: _278  and  _279
REMARK  115  A    between atoms: _278  and  _281
REMARK  116  A    between atoms: _281  and  _282
REMARK  117  A    between atoms: _285  and  _287
REMARK  118  A    between atoms: _287  and  _288
REMARK  119  A    between atoms: _287  and  _290
REMARK  120  A    between atoms: _290  and  _291
REMARK  121  A    between atoms: _294  and  _296
REMARK  122  A    between atoms: _296  and  _297
REMARK  123  A    between atoms: _299  and  _301
REMARK  124  A    between atoms: _301  and  _302
REMARK  125  A    between atoms: _305  and  _307
REMARK  126  A    between atoms: _307  and  _308
REMARK  127  A    between atoms: _307  and  _310
REMARK  128  A    between atoms: _310  and  _311
REMARK  129  A    between atoms: _314  and  _316
REMARK  130  A    between atoms: _316  and  _317
REMARK  131  A    between atoms: _316  and  _319
REMARK  132  A    between atoms: _319  and  _320
REMARK  133  A    between atoms: _323  and  _325
REMARK  134  A    between atoms: _325  and  _326
REMARK  135  A    between atoms: _325  and  _328
REMARK  136  A    between atoms: _328  and  _329
REMARK  137  A    between atoms: _332  and  _334
REMARK  138  A    between atoms: _334  and  _335
REMARK  139  A    between atoms: _334  and  _337
REMARK  140  A    between atoms: _340  and  _342
REMARK  141  A    between atoms: _342  and  _343
REMARK  142  A    between atoms: _342  and  _345
REMARK  143  A    between atoms: _345  and  _346
REMARK  144  A    between atoms: _346  and  _347
REMARK  145  A    between atoms: _347  and  _348
REMARK  146  A    between atoms: _348  and  _349
REMARK  147  A    between atoms: _353  and  _355
REMARK  148  A    between atoms: _355  and  _356
REMARK  149  A    between atoms: _355  and  _358
REMARK  150  A    between atoms: _358  and  _359
REMARK  151  A    between atoms: _359  and  _360
REMARK  152  A    between atoms: _362  and  _364
REMARK  153  A    between atoms: _364  and  _365
REMARK  154  A    between atoms: _364  and  _367
REMARK  155  A    between atoms: _367  and  _368
REMARK  156  A    between atoms: _371  and  _373
REMARK  157  A    between atoms: _373  and  _374
REMARK  158  A    between atoms: _376  and  _378
REMARK  159  A    between atoms: _378  and  _379
REMARK  160  A    between atoms: _381  and  _383
REMARK  161  A    between atoms: _383  and  _384
REMARK  162  A    between atoms: _383  and  _386
REMARK  163  A    between atoms: _386  and  _387
REMARK  164  A    between atoms: _390  and  _392
REMARK  165  A    between atoms: _392  and  _393
REMARK  166  A    between atoms: _395  and  _397
REMARK  167  A    between atoms: _397  and  _398
REMARK  168  A    between atoms: _400  and  _402
REMARK  169  A    between atoms: _402  and  _403
REMARK  170  A    between atoms: _402  and  _405
REMARK  171  A    between atoms: _405  and  _406
REMARK  172  A    between atoms: _412  and  _414
REMARK  173  A    between atoms: _414  and  _415
REMARK  174  A    between atoms: _414  and  _417
REMARK  175  A    between atoms: _417  and  _418
REMARK  176  A    between atoms: _421  and  _423
REMARK  177  A    between atoms: _423  and  _424
REMARK  178  A    between atoms: _423  and  _426
REMARK  179  A    between atoms: _429  and  _431
REMARK  180  A    between atoms: _431  and  _432
REMARK  181  A    between atoms: _431  and  _434
REMARK  182  A    between atoms: _434  and  _435
REMARK  183  A    between atoms: _438  and  _440
REMARK  184  A    between atoms: _440  and  _441
REMARK  185  A    between atoms: _440  and  _443
REMARK  186  A    between atoms: _443  and  _444
REMARK  187  A    between atoms: _448  and  _449
REMARK  188  A    between atoms: _454  and  _456
REMARK  189  A    between atoms: _456  and  _457
REMARK  190  A    between atoms: _456  and  _459
REMARK  191  A    between atoms: _459  and  _460
REMARK  192  A    between atoms: _463  and  _465
REMARK  193  A    between atoms: _465  and  _466
REMARK  194  A    between atoms: _465  and  _468
REMARK  195  A    between atoms: _468  and  _469
REMARK  196  A    between atoms: _474  and  _476
REMARK  197  A    between atoms: _476  and  _477
REMARK  198  A    between atoms: _476  and  _479
REMARK  199  A    between atoms: _479  and  _480
REMARK  200  A    between atoms: _483  and  _485
REMARK  201  A    between atoms: _485  and  _486
REMARK  202  A    between atoms: _485  and  _488
REMARK  203  A    between atoms: _488  and  _489
REMARK  204  A    between atoms: _492  and  _494
REMARK  205  A    between atoms: _494  and  _495
REMARK  206  A    between atoms: _497  and  _499
REMARK  207  A    between atoms: _499  and  _500
REMARK  208  A    between atoms: _499  and  _502
REMARK  209  A    between atoms: _502  and  _503
REMARK  210  A    between atoms: _503  and  _504
REMARK  211  A    between atoms: _504  and  _505
REMARK  212  A    between atoms: _514  and  _516
REMARK  213  A    between atoms: _516  and  _517
REMARK  214  A    between atoms: _516  and  _519
REMARK  215  A    between atoms: _519  and  _520
REMARK                            x       y       z     vdW  Elec       q    Type
REMARK                         _______ _______ _______ _____ _____    ______ ____
ROOT
ATOM      1  CA  LEU A   1      -4.543  30.180  27.675  0.00  0.00    +0.133 C 
ENDROOT
BRANCH   1   2
ATOM      2  N   LEU A   1      -5.651  30.252  26.782  0.00  0.00    -0.239 NA
ATOM      3  H   LEU A   1      -5.510  30.895  25.977  0.00  0.00    +0.142 HD
ENDBRANCH   1   2
BRANCH   1   4
ATOM      4  C   LEU A   1      -4.512  31.435  28.534  0.00  0.00    +0.224 C 
ATOM      5  O   LEU A   1      -4.733  32.520  28.055  0.00  0.00    -0.287 OA
ENDBRANCH   1   4
BRANCH   1   6
ATOM      6  CB  LEU A   1      -3.181  30.191  26.972  0.00  0.00    +0.025 C 
BRANCH   6   7
ATOM      7  CG  LEU A   1      -2.866  28.922  26.198  0.00  0.00    +0.002 C 
ATOM      8  CD2 LEU A   1      -3.130  27.670  26.973  0.00  0.00    +0.000 C 
ATOM      9  CD1 LEU A   1      -1.374  28.935  25.904  0.00  0.00    +0.000 C 
ENDBRANCH   6   7
ENDBRANCH   1   6
TORSDOF 4
REMARK  Name = ../refined-set-2016/1gnm/1gnm_pocket.pdb
REMARK  215 active torsions:
REMARK  status: ('A' for Active; 'I' for Inactive)
REMARK    1  A    between atoms: _1  and  _3
REMARK    2  A    between atoms: _3  and  _4
REMARK    3  A    between atoms: _3  and  _6
REMARK    4  A    between atoms: _6  and  _7
REMARK    5  A    between atoms: _7  and  _8
REMARK    6  A    between atoms: _8  and  _9
REMARK    7  A    between atoms: _18  and  _20
REMARK    8  A    between atoms: _20  and  _21
REMARK    9  A    between atoms: _20  and  _23
REMARK   10  A    between atoms: _23  and  _24
REMARK   11  A    between atoms: _27  and  _29
REMARK   12  A    between atoms: _29  and  _30
REMARK   13  A    between atoms: _29  and  _32
REMARK   14  A    between atoms: _32  and  _33
REMARK   15  A    between atoms: _36  and  _38
REMARK   16  A    between atoms: _38  and  _39
REMARK   17  A    between atoms: _38  and  _41
REMARK   18  A    between atoms: _41  and  _42
REMARK   19  A    between atoms: _45  and  _47
REMARK   20  A    between atoms: _47  and  _48
REMARK   21  A    between atoms: _47  and  _50
REMARK   22  A    between atoms: _50  and  _51
REMARK   23  A    between atoms: _54  and  _56
REMARK   24  A    between atoms: _56  and  _57
REMARK   25  A    between atoms: _56  and  _59
REMARK   26  A    between atoms: _59  and  _60
REMARK   27  A    between atoms: _63  and  _65
REMARK   28  A    between atoms: _65  and  _66
REMARK   29  A    between atoms: _68  and  _70
REMARK   30  A    between atoms: _70  and  _71
REMARK   31  A    between atoms: _74  and  _76
REMARK   32  A    between atoms: _76  and  _77
REMARK   33  A    between atoms: _76  and  _79
REMARK   34  A    between atoms: _79  and  _80
REMARK   35  A    between atoms: _83  and  _85
REMARK   36  A    between atoms: _85  and  _86
REMARK   37  A    between atoms: _85  and  _88
REMARK   38  A    between atoms: _88  and  _89
REMARK   39  A    between atoms: _92  and  _94
REMARK   40  A    between atoms: _94  and  _95
REMARK   41  A    between atoms: _94  and  _97
REMARK   42  A    between atoms: _97  and  _98
REMARK   43  A    between atoms: _101  and  _103
REMARK   44  A    between atoms: _103  and  _104
REMARK   45  A    between atoms: _103  and  _106
REMARK   46  A    between atoms: _109  and  _111
REMARK   47  A    between atoms: _111  and  _112
REMARK   48  A    between atoms: _111  and  _114
REMARK   49  A    between atoms: _114  and  _115
REMARK   50  A    between atoms: _118  and  _120
REMARK   51  A    between atoms: _120  and  _121
REMARK   52  A    between atoms: _123  and  _125
REMARK   53  A    between atoms: _125  and  _126
REMARK   54  A    between atoms: _128  and  _130
REMARK   55  A    between atoms: _130  and  _131
REMARK   56  A    between atoms: _130  and  _133
REMARK   57  A    between atoms: _133  and  _134
REMARK   58  A    between atoms: _137  and  _139
REMARK   59  A    between atoms: _139  and  _140
REMARK   60  A    between atoms: _142  and  _144
REMARK   61  A    between atoms: _144  and  _145
REMARK   62  A    between atoms: _147  and  _149
REMARK   63  A    between atoms: _149  and  _150
REMARK   64  A    between atoms: _149  and  _152
REMARK   65  A    between atoms: _152  and  _153
REMARK   66  A    between atoms: _156  and  _158
REMARK   67  A    between atoms: _158  and  _159
REMARK   68  A    between atoms: _158  and  _161
REMARK   69  A    between atoms: _161  and  _162
REMARK   70  A    between atoms: _165  and  _167
REMARK   71  A    between atoms: _167  and  _168
REMARK   72  A    between atoms: _167  and  _170
REMARK   73  A    between atoms: _170  and  _171
REMARK   74  A    between atoms: _175  and  _176
REMARK   75  A    between atoms: _181  and  _183
REMARK   76  A    between atoms: _183  and  _184
REMARK   77  A    between atoms: _183  and  _186
REMARK   78  A    between atoms: _186  and  _187
REMARK   79  A    between atoms: _190  and  _192
REMARK   80  A    between atoms: _192  and  _193
REMARK   81  A    between atoms: _192  and  _195
REMARK   82  A    between atoms: _195  and  _196
REMARK   83  A    between atoms: _201  and  _203
REMARK   84  A    between atoms: _203  and  _204
REMARK   85  A    between atoms: _203  and  _206
REMARK   86  A    between atoms: _206  and  _207
REMARK   87  A    between atoms: _210  and  _212
REMARK   88  A    between atoms: _212  and  _213
REMARK   89  A    between atoms: _212  and  _215
REMARK   90  A    between atoms: _215  and  _216
REMARK   91  A    between atoms: _219  and  _221
REMARK   92  A    between atoms: _221  and  _222
REMARK   93  A    between atoms: _224  and  _226
REMARK   94  A    between atoms: _226  and  _227
REMARK   95  A    between atoms: _226  and  _229
REMARK   96  A    between atoms: _229  and  _230
REMARK   97  A    between atoms: _230  and  _231
REMARK   98  A    between atoms: _231  and  _232
REMARK   99  A    between atoms: _241  and  _243
REMARK  100  A    between atoms: _243  and  _244
REMARK  101  A    between atoms: _243  and  _246
REMARK  102  A    between atoms: _246  and  _247
REMARK  103  A    between atoms: _247  and  _248
REMARK  104  A    between atoms: _248  and  _249
REMARK  105  A    between atoms: _258  and  _260
REMARK  106  A    between atoms: _260  and  _261
REMARK  107  A    between atoms: _260  and  _263
REMARK  108  A    between atoms: _263  and  _264
REMARK  109  A    between atoms: _267  and  _269
REMARK  110  A    between atoms: _269  and  _270
REMARK  111  A    between atoms: _269  and  _272
REMARK  112  A    between atoms: _272  and  _273
REMARK  113  A    between atoms: _276  and  _278
REMARK  114  A    between atoms: _278  and  _279
REMARK  115  A    between atoms: _278  and  _281
REMARK  116  A    between atoms: _281  and  _282
REMARK  117  A    between atoms: _285  and  _287
REMARK  118  A    between atoms: _287  and  _288
REMARK  119  A    between atoms: _287  and  _290
REMARK  120  A    between atoms: _290  and  _291
REMARK  121  A    between atoms: _294  and  _296
REMARK  122  A    between atoms: _296  and  _297
REMARK  123  A    between atoms: _299  and  _301
REMARK  124  A    between atoms: _301  and  _302
REMARK  125  A    between atoms: _305  and  _307
REMARK  126  A    between atoms: _307  and  _308
REMARK  127  A    between atoms: _307  and  _310
REMARK  128  A    between atoms: _310  and  _311
REMARK  129  A    between atoms: _314  and  _316
REMARK  130  A    between atoms: _316  and  _317
REMARK  131  A    between atoms: _316  and  _319
REMARK  132  A    between atoms: _319  and  _320
REMARK  133  A    between atoms: _323  and  _325
REMARK  134  A    between atoms: _325  and  _326
REMARK  135  A    between atoms: _325  and  _328
REMARK  136  A    between atoms: _328  and  _329
REMARK  137  A    between atoms: _332  and  _334
REMARK  138  A    between atoms: _334  and  _335
REMARK  139  A    between atoms: _334  and  _337
REMARK  140  A    between atoms: _340  and  _342
REMARK  141  A    between atoms: _342  and  _343
REMARK  142  A    between atoms: _342  and  _345
REMARK  143  A    between atoms: _345  and  _346
REMARK  144  A    between atoms: _346  and  _347
REMARK  145  A    between atoms: _347  and  _348
REMARK  146  A    between atoms: _348  and  _349
REMARK  147  A    between atoms: _353  and  _355
REMARK  148  A    between atoms: _355  and  _356
REMARK  149  A    between atoms: _355  and  _358
REMARK  150  A    between atoms: _358  and  _359
REMARK  151  A    between atoms: _359  and  _360
REMARK  152  A    between atoms: _362  and  _364
REMARK  153  A    between atoms: _364  and  _365
REMARK  154  A    between atoms: _364  and  _367
REMARK  155  A    between atoms: _367  and  _368
REMARK  156  A    between atoms: _371  and  _373
REMARK  157  A    between atoms: _373  and  _374
REMARK  158  A    between atoms: _376  and  _378
REMARK  159  A    between atoms: _378  and  _379
REMARK  160  A    between atoms: _381  and  _383
REMARK  161  A    between atoms: _383  and  _384
REMARK  162  A    between atoms: _383  and  _386
REMARK  163  A    between atoms: _386  and  _387
REMARK  164  A    between atoms: _390  and  _392
REMARK  165  A    between atoms: _392  and  _393
REMARK  166  A    between atoms: _395  and  _397
REMARK  167  A    between atoms: _397  and  _398
REMARK  168  A    between atoms: _400  and  _402
REMARK  169  A    between atoms: _402  and  _403
REMARK  170  A    between atoms: _402  and  _405
REMARK  171  A    between atoms: _405  and  _406
REMARK  172  A    between atoms: _412  and  _414
REMARK  173  A    between atoms: _414  and  _415
REMARK  174  A    between atoms: _414  and  _417
REMARK  175  A    between atoms: _417  and  _418
REMARK  176  A    between atoms: _421  and  _423
REMARK  177  A    between atoms: _423  and  _424
REMARK  178  A    between atoms: _423  and  _426
REMARK  179  A    between atoms: _429  and  _431
REMARK  180  A    between atoms: _431  and  _432
REMARK  181  A    between atoms: _431  and  _434
REMARK  182  A    between atoms: _434  and  _435
REMARK  183  A    between atoms: _438  and  _440
REMARK  184  A    between atoms: _440  and  _441
REMARK  185  A    between atoms: _440  and  _443
REMARK  186  A    between atoms: _443  and  _444
REMARK  187  A    between atoms: _448  and  _449
REMARK  188  A    between atoms: _454  and  _456
REMARK  189  A    between atoms: _456  and  _457
REMARK  190  A    between atoms: _456  and  _459
REMARK  191  A    between atoms: _459  and  _460
REMARK  192  A    between atoms: _463  and  _465
REMARK  193  A    between atoms: _465  and  _466
REMARK  194  A    between atoms: _465  and  _468
REMARK  195  A    between atoms: _468  and  _469
REMARK  196  A    between atoms: _474  and  _476
REMARK  197  A    between atoms: _476  and  _477
REMARK  198  A    between atoms: _476  and  _479
REMARK  199  A    between atoms: _479  and  _480
REMARK  200  A    between atoms: _483  and  _485
REMARK  201  A    between atoms: _485  and  _486
REMARK  202  A    between atoms: _485  and  _488
REMARK  203  A    between atoms: _488  and  _489
REMARK  204  A    between atoms: _492  and  _494
REMARK  205  A    between atoms: _494  and  _495
REMARK  206  A    between atoms: _497  and  _499
REMARK  207  A    between atoms: _499  and  _500
REMARK  208  A    between atoms: _499  and  _502
REMARK  209  A    between atoms: _502  and  _503
REMARK  210  A    between atoms: _503  and  _504
REMARK  211  A    between atoms: _504  and  _505
REMARK  212  A    between atoms: _514  and  _516
REMARK  213  A    between atoms: _516  and  _517
REMARK  214  A    between atoms: _516  and  _519
REMARK  215  A    between atoms: _519  and  _520
REMARK                            x       y       z     vdW  Elec       q    Type
REMARK                         _______ _______ _______ _____ _____    ______ ____
ROOT
ATOM      1  C   GLY A   5     -13.713  18.863  30.693  0.00  0.00    +0.243 C 
ATOM      2  N   ALA A   6     -13.018  19.656  31.509  0.00  0.00    -0.297 N 
ATOM      3  H   ALA A   6     -13.040  20.683  31.347  0.00  0.00    +0.150 HD
ATOM      4  O   GLY A   5     -13.774  17.641  30.804  0.00  0.00    -0.273 OA
ENDROOT
BRANCH   2   5
ATOM      5  CA  ALA A   6     -12.225  19.136  32.623  0.00  0.00    +0.149 C 
ATOM      6  CB  ALA A   6     -10.899  19.887  32.699  0.00  0.00    +0.031 C 
BRANCH   5   7
ATOM      7  C   ALA A   6     -13.056  19.288  33.898  0.00  0.00    +0.241 C 
ATOM      8  N   ASP A   7     -13.355  18.231  34.668  0.00  0.00    -0.297 N 
ATOM      9  H   ASP A   7     -13.064  17.267  34.407  0.00  0.00    +0.150 HD
ATOM     10  O   ALA A   6     -13.475  20.397  34.195  0.00  0.00    -0.273 OA
BRANCH   8  11
ATOM     11  CA  ASP A   7     -14.108  18.497  35.890  0.00  0.00    +0.160 C 
BRANCH  11  12
ATOM     12  C   ASP A   7     -13.144  19.091  36.910  0.00  0.00    +0.241 C 
ATOM     13  O   ASP A   7     -13.620  19.869  37.741  0.00  0.00    -0.273 OA
ATOM     14  N   ASP A   8     -11.871  18.765  36.829  0.00  0.00    -0.297 N 
ATOM     15  H   ASP A   8     -11.568  18.174  36.029  0.00  0.00    +0.150 HD
BRANCH  14  16
ATOM     16  CA  ASP A   8     -10.874  19.177  37.781  0.00  0.00    +0.160 C 
BRANCH  16  17
ATOM     17  C   ASP A   8      -9.749  19.982  37.161  0.00  0.00    +0.241 C 
ATOM     18  N   THR A   9      -8.848  20.420  38.028  0.00  0.00    -0.295 N 
ATOM     19  H   THR A   9      -8.961  20.172  39.032  0.00  0.00    +0.150 HD
ATOM     20  O   ASP A   8      -9.777  20.179  35.962  0.00  0.00    -0.273 OA
BRANCH  18  21
ATOM     21  CA  THR A   9      -7.718  21.226  37.639  0.00  0.00    +0.176 C 
BRANCH  21  22
ATOM     22  C   THR A   9      -6.487  20.356  37.754  0.00  0.00    +0.243 C 
ATOM     23  O   THR A   9      -6.220  19.745  38.781  0.00  0.00    -0.273 OA
ATOM     24  N   VAL A  10      -5.766  20.334  36.646  0.00  0.00    -0.298 N 
ATOM     25  H   VAL A  10      -5.998  20.937  35.831  0.00  0.00    +0.150 HD
BRANCH  24  26
ATOM     26  CA  VAL A  10      -4.614  19.410  36.625  0.00  0.00    +0.137 C 
BRANCH  26  27
ATOM     27  CB  VAL A  10      -4.965  18.008  36.119  0.00  0.00    +0.026 C 
ATOM     28  CG2 VAL A  10      -3.783  17.325  35.465  0.00  0.00    +0.002 C 
ATOM     29  CG1 VAL A  10      -6.154  17.923  35.203  0.00  0.00    +0.002 C 
ENDBRANCH  26  27
BRANCH  26  30
ATOM     30  C   VAL A  10      -3.446  20.113  35.960  0.00  0.00    +0.227 C 
ATOM     31  O   VAL A  10      -3.530  20.604  34.853  0.00  0.00    -0.286 OA
ENDBRANCH  26  30
ENDBRANCH  24  26
ENDBRANCH  21  22
BRANCH  21  32
ATOM     32  CB  THR A   9      -7.555  22.407  38.602  0.00  0.00    +0.137 C 
ATOM     33  CG2 THR A   9      -6.389  23.280  38.196  0.00  0.00    +0.034 C 
BRANCH  32  34
ATOM     34  OG1 THR A   9      -8.751  23.180  38.571  0.00  0.00    -0.382 OA
ATOM     35  HG1 THR A   9      -9.515  22.616  38.852  0.00  0.00    +0.210 HD
ENDBRANCH  32  34
ENDBRANCH  21  32
ENDBRANCH  18  21
ENDBRANCH  16  17
BRANCH  16  36
ATOM     36  CB  ASP A   8     -10.050  17.995  38.293  0.00  0.00    +0.143 C 
BRANCH  36  37
ATOM     37  CG  ASP A   8     -10.953  17.029  39.011  0.00  0.00    +0.367 C 
ATOM     38  OD2 ASP A   8     -11.452  17.459  40.079  0.00  0.00    -0.246 OA
ATOM     39  OD1 ASP A   8     -11.166  15.918  38.491  0.00  0.00    -0.246 OA
ENDBRANCH  36  37
ENDBRANCH  16  36
ENDBRANCH  14  16
ENDBRANCH  11  12
BRANCH  11  40
ATOM     40  CB  ASP A   7     -14.756  17.331  36.577  0.00  0.00    +0.143 C 
BRANCH  40  41
ATOM     41  CG  ASP A   7     -15.552  16.326  35.761  0.00  0.00    +0.367 C 
ATOM     42  OD2 ASP A   7     -15.328  15.089  35.961  0.00  0.00    -0.246 OA
ATOM     43  OD1 ASP A   7     -16.405  16.677  34.905  0.00  0.00    -0.246 OA
ENDBRANCH  40  41
ENDBRANCH  11  40
ENDBRANCH   8  11
ENDBRANCH   5   7
ENDBRANCH   2   5
BRANCH   1  44
ATOM     44  CA  GLY A   5     -14.453  19.562  29.571  0.00  0.00    +0.176 C 
BRANCH  44  47
ATOM     45  C   THR A   4     -15.107  21.849  30.209  0.00  0.00    +0.243 C 
ATOM     46  O   THR A   4     -16.145  21.390  30.681  0.00  0.00    -0.273 OA
ATOM     47  N   GLY A   5     -14.281  20.998  29.636  0.00  0.00    -0.295 N 
ATOM     48  H   GLY A   5     -13.429  21.393  29.190  0.00  0.00    +0.150 HD
BRANCH  45  49
ATOM     49  CA  THR A   4     -14.824  23.341  30.290  0.00  0.00    +0.176 C 
BRANCH  49  52
ATOM     50  C   ASP A   3     -12.349  23.386  30.494  0.00  0.00    +0.241 C 
ATOM     51  O   ASP A   3     -12.480  22.766  31.538  0.00  0.00    -0.273 OA
ATOM     52  N   THR A   4     -13.484  23.663  29.829  0.00  0.00    -0.295 N 
ATOM     53  H   THR A   4     -13.396  24.146  28.912  0.00  0.00    +0.150 HD
BRANCH  50  54
ATOM     54  CA  ASP A   3     -11.000  23.747  29.944  0.00  0.00    +0.160 C 
BRANCH  54  56
ATOM     55  C   LEU A   2     -10.039  25.931  29.711  0.00  0.00    +0.241 C 
ATOM     56  N   ASP A   3     -10.381  24.933  30.544  0.00  0.00    -0.297 N 
ATOM     57  H   ASP A   3     -10.214  24.999  31.568  0.00  0.00    +0.150 HD
ATOM     58  O   LEU A   2     -10.296  25.972  28.506  0.00  0.00    -0.273 OA
BRANCH  55  59
ATOM     59  CA  LEU A   2      -9.262  27.094  30.305  0.00  0.00    +0.149 C 
BRANCH  59  62
ATOM     60  C   LEU A   1      -6.967  26.328  30.163  0.00  0.00    +0.238 C 
ATOM     61  O   LEU A   1      -7.070  25.637  31.191  0.00  0.00    -0.274 OA
ATOM     62  N   LEU A   2      -7.942  27.061  29.661  0.00  0.00    -0.297 N 
ATOM     63  H   LEU A   2      -7.775  27.621  28.801  0.00  0.00    +0.150 HD
BRANCH  60  64
ATOM     64  CA  LEU A   1      -5.656  26.225  29.410  0.00  0.00    +0.145 C 
BRANCH  64  65
ATOM     65  N   LEU A   1      -4.533  26.231  30.346  0.00  0.00    -0.238 NA
ATOM     66  H   LEU A   1      -4.118  25.338  30.680  0.00  0.00    +0.142 HD
ENDBRANCH  64  65
BRANCH  64  67
ATOM     67  CB  LEU A   1      -5.634  24.845  28.735  0.00  0.00    +0.026 C 
BRANCH  67  68
ATOM     68  CG  LEU A   1      -5.544  24.901  27.208  0.00  0.00    +0.002 C 
ATOM     69  CD2 LEU A   1      -5.954  23.516  26.694  0.00  0.00    +0.000 C 
ATOM     70  CD1 LEU A   1      -6.542  25.877  26.676  0.00  0.00    +0.000 C 
ENDBRANCH  67  68
ENDBRANCH  64  67
ENDBRANCH  60  64
ENDBRANCH  59  62
BRANCH  59  71
ATOM     71  CB  LEU A   2      -9.997  28.399  30.072  0.00  0.00    +0.029 C 
BRANCH  71  72
ATOM     72  CG  LEU A   2      -9.965  29.514  31.127  0.00  0.00    +0.002 C 
ATOM     73  CD2 LEU A   2      -8.757  29.411  32.041  0.00  0.00    +0.000 C 
ATOM     74  CD1 LEU A   2      -9.890  30.880  30.465  0.00  0.00    +0.000 C 
ENDBRANCH  71  72
ENDBRANCH  59  71
ENDBRANCH  55  59
ENDBRANCH  54  56
BRANCH  54  75
ATOM     75  CB  ASP A   3      -9.937  22.644  30.055  0.00  0.00    +0.143 C 
BRANCH  75  76
ATOM     76  CG  ASP A   3     -10.328  21.425  29.276  0.00  0.00    +0.367 C 
ATOM     77  OD2 ASP A   3      -9.703  20.354  29.387  0.00  0.00    -0.246 OA
ATOM     78  OD1 ASP A   3     -11.326  21.373  28.547  0.00  0.00    -0.246 OA
ENDBRANCH  75  76
ENDBRANCH  54  75
ENDBRANCH  50  54
ENDBRANCH  49  52
BRANCH  49  79
ATOM     79  CB  THR A   4     -15.930  24.057  29.520  0.00  0.00    +0.137 C 
ATOM     80  CG2 THR A   4     -15.965  25.573  29.613  0.00  0.00    +0.034 C 
BRANCH  79  81
ATOM     81  OG1 THR A   4     -15.791  23.872  28.114  0.00  0.00    -0.382 OA
ATOM     82  HG1 THR A   4     -15.837  22.906  27.903  0.00  0.00    +0.210 HD
ENDBRANCH  79  81
ENDBRANCH  49  79
ENDBRANCH  45  49
ENDBRANCH  44  47
ENDBRANCH   1  44
TORSDOF 35
REMARK  Name = ../refined-set-2016/1gnm/1gnm_pocket.pdb
REMARK  215 active torsions:
REMARK  status: ('A' for Active; 'I' for Inactive)
REMARK    1  A    between atoms: _1  and  _3
REMARK    2  A    between atoms: _3  and  _4
REMARK    3  A    between atoms: _3  and  _6
REMARK    4  A    between atoms: _6  and  _7
REMARK    5  A    between atoms: _7  and  _8
REMARK    6  A    between atoms: _8  and  _9
REMARK    7  A    between atoms: _18  and  _20
REMARK    8  A    between atoms: _20  and  _21
REMARK    9  A    between atoms: _20  and  _23
REMARK   10  A    between atoms: _23  and  _24
REMARK   11  A    between atoms: _27  and  _29
REMARK   12  A    between atoms: _29  and  _30
REMARK   13  A    between atoms: _29  and  _32
REMARK   14  A    between atoms: _32  and  _33
REMARK   15  A    between atoms: _36  and  _38
REMARK   16  A    between atoms: _38  and  _39
REMARK   17  A    between atoms: _38  and  _41
REMARK   18  A    between atoms: _41  and  _42
REMARK   19  A    between atoms: _45  and  _47
REMARK   20  A    between atoms: _47  and  _48
REMARK   21  A    between atoms: _47  and  _50
REMARK   22  A    between atoms: _50  and  _51
REMARK   23  A    between atoms: _54  and  _56
REMARK   24  A    between atoms: _56  and  _57
REMARK   25  A    between atoms: _56  and  _59
REMARK   26  A    between atoms: _59  and  _60
REMARK   27  A    between atoms: _63  and  _65
REMARK   28  A    between atoms: _65  and  _66
REMARK   29  A    between atoms: _68  and  _70
REMARK   30  A    between atoms: _70  and  _71
REMARK   31  A    between atoms: _74  and  _76
REMARK   32  A    between atoms: _76  and  _77
REMARK   33  A    between atoms: _76  and  _79
REMARK   34  A    between atoms: _79  and  _80
REMARK   35  A    between atoms: _83  and  _85
REMARK   36  A    between atoms: _85  and  _86
REMARK   37  A    between atoms: _85  and  _88
REMARK   38  A    between atoms: _88  and  _89
REMARK   39  A    between atoms: _92  and  _94
REMARK   40  A    between atoms: _94  and  _95
REMARK   41  A    between atoms: _94  and  _97
REMARK   42  A    between atoms: _97  and  _98
REMARK   43  A    between atoms: _101  and  _103
REMARK   44  A    between atoms: _103  and  _104
REMARK   45  A    between atoms: _103  and  _106
REMARK   46  A    between atoms: _109  and  _111
REMARK   47  A    between atoms: _111  and  _112
REMARK   48  A    between atoms: _111  and  _114
REMARK   49  A    between atoms: _114  and  _115
REMARK   50  A    between atoms: _118  and  _120
REMARK   51  A    between atoms: _120  and  _121
REMARK   52  A    between atoms: _123  and  _125
REMARK   53  A    between atoms: _125  and  _126
REMARK   54  A    between atoms: _128  and  _130
REMARK   55  A    between atoms: _130  and  _131
REMARK   56  A    between atoms: _130  and  _133
REMARK   57  A    between atoms: _133  and  _134
REMARK   58  A    between atoms: _137  and  _139
REMARK   59  A    between atoms: _139  and  _140
REMARK   60  A    between atoms: _142  and  _144
REMARK   61  A    between atoms: _144  and  _145
REMARK   62  A    between atoms: _147  and  _149
REMARK   63  A    between atoms: _149  and  _150
REMARK   64  A    between atoms: _149  and  _152
REMARK   65  A    between atoms: _152  and  _153
REMARK   66  A    between atoms: _156  and  _158
REMARK   67  A    between atoms: _158  and  _159
REMARK   68  A    between atoms: _158  and  _161
REMARK   69  A    between atoms: _161  and  _162
REMARK   70  A    between atoms: _165  and  _167
REMARK   71  A    between atoms: _167  and  _168
REMARK   72  A    between atoms: _167  and  _170
REMARK   73  A    between atoms: _170  and  _171
REMARK   74  A    between atoms: _175  and  _176
REMARK   75  A    between atoms: _181  and  _183
REMARK   76  A    between atoms: _183  and  _184
REMARK   77  A    between atoms: _183  and  _186
REMARK   78  A    between atoms: _186  and  _187
REMARK   79  A    between atoms: _190  and  _192
REMARK   80  A    between atoms: _192  and  _193
REMARK   81  A    between atoms: _192  and  _195
REMARK   82  A    between atoms: _195  and  _196
REMARK   83  A    between atoms: _201  and  _203
REMARK   84  A    between atoms: _203  and  _204
REMARK   85  A    between atoms: _203  and  _206
REMARK   86  A    between atoms: _206  and  _207
REMARK   87  A    between atoms: _210  and  _212
REMARK   88  A    between atoms: _212  and  _213
REMARK   89  A    between atoms: _212  and  _215
REMARK   90  A    between atoms: _215  and  _216
REMARK   91  A    between atoms: _219  and  _221
REMARK   92  A    between atoms: _221  and  _222
REMARK   93  A    between atoms: _224  and  _226
REMARK   94  A    between atoms: _226  and  _227
REMARK   95  A    between atoms: _226  and  _229
REMARK   96  A    between atoms: _229  and  _230
REMARK   97  A    between atoms: _230  and  _231
REMARK   98  A    between atoms: _231  and  _232
REMARK   99  A    between atoms: _241  and  _243
REMARK  100  A    between atoms: _243  and  _244
REMARK  101  A    between atoms: _243  and  _246
REMARK  102  A    between atoms: _246  and  _247
REMARK  103  A    between atoms: _247  and  _248
REMARK  104  A    between atoms: _248  and  _249
REMARK  105  A    between atoms: _258  and  _260
REMARK  106  A    between atoms: _260  and  _261
REMARK  107  A    between atoms: _260  and  _263
REMARK  108  A    between atoms: _263  and  _264
REMARK  109  A    between atoms: _267  and  _269
REMARK  110  A    between atoms: _269  and  _270
REMARK  111  A    between atoms: _269  and  _272
REMARK  112  A    between atoms: _272  and  _273
REMARK  113  A    between atoms: _276  and  _278
REMARK  114  A    between atoms: _278  and  _279
REMARK  115  A    between atoms: _278  and  _281
REMARK  116  A    between atoms: _281  and  _282
REMARK  117  A    between atoms: _285  and  _287
REMARK  118  A    between atoms: _287  and  _288
REMARK  119  A    between atoms: _287  and  _290
REMARK  120  A    between atoms: _290  and  _291
REMARK  121  A    between atoms: _294  and  _296
REMARK  122  A    between atoms: _296  and  _297
REMARK  123  A    between atoms: _299  and  _301
REMARK  124  A    between atoms: _301  and  _302
REMARK  125  A    between atoms: _305  and  _307
REMARK  126  A    between atoms: _307  and  _308
REMARK  127  A    between atoms: _307  and  _310
REMARK  128  A    between atoms: _310  and  _311
REMARK  129  A    between atoms: _314  and  _316
REMARK  130  A    between atoms: _316  and  _317
REMARK  131  A    between atoms: _316  and  _319
REMARK  132  A    between atoms: _319  and  _320
REMARK  133  A    between atoms: _323  and  _325
REMARK  134  A    between atoms: _325  and  _326
REMARK  135  A    between atoms: _325  and  _328
REMARK  136  A    between atoms: _328  and  _329
REMARK  137  A    between atoms: _332  and  _334
REMARK  138  A    between atoms: _334  and  _335
REMARK  139  A    between atoms: _334  and  _337
REMARK  140  A    between atoms: _340  and  _342
REMARK  141  A    between atoms: _342  and  _343
REMARK  142  A    between atoms: _342  and  _345
REMARK  143  A    between atoms: _345  and  _346
REMARK  144  A    between atoms: _346  and  _347
REMARK  145  A    between atoms: _347  and  _348
REMARK  146  A    between atoms: _348  and  _349
REMARK  147  A    between atoms: _353  and  _355
REMARK  148  A    between atoms: _355  and  _356
REMARK  149  A    between atoms: _355  and  _358
REMARK  150  A    between atoms: _358  and  _359
REMARK  151  A    between atoms: _359  and  _360
REMARK  152  A    between atoms: _362  and  _364
REMARK  153  A    between atoms: _364  and  _365
REMARK  154  A    between atoms: _364  and  _367
REMARK  155  A    between atoms: _367  and  _368
REMARK  156  A    between atoms: _371  and  _373
REMARK  157  A    between atoms: _373  and  _374
REMARK  158  A    between atoms: _376  and  _378
REMARK  159  A    between atoms: _378  and  _379
REMARK  160  A    between atoms: _381  and  _383
REMARK  161  A    between atoms: _383  and  _384
REMARK  162  A    between atoms: _383  and  _386
REMARK  163  A    between atoms: _386  and  _387
REMARK  164  A    between atoms: _390  and  _392
REMARK  165  A    between atoms: _392  and  _393
REMARK  166  A    between atoms: _395  and  _397
REMARK  167  A    between atoms: _397  and  _398
REMARK  168  A    between atoms: _400  and  _402
REMARK  169  A    between atoms: _402  and  _403
REMARK  170  A    between atoms: _402  and  _405
REMARK  171  A    between atoms: _405  and  _406
REMARK  172  A    between atoms: _412  and  _414
REMARK  173  A    between atoms: _414  and  _415
REMARK  174  A    between atoms: _414  and  _417
REMARK  175  A    between atoms: _417  and  _418
REMARK  176  A    between atoms: _421  and  _423
REMARK  177  A    between atoms: _423  and  _424
REMARK  178  A    between atoms: _423  and  _426
REMARK  179  A    between atoms: _429  and  _431
REMARK  180  A    between atoms: _431  and  _432
REMARK  181  A    between atoms: _431  and  _434
REMARK  182  A    between atoms: _434  and  _435
REMARK  183  A    between atoms: _438  and  _440
REMARK  184  A    between atoms: _440  and  _441
REMARK  185  A    between atoms: _440  and  _443
REMARK  186  A    between atoms: _443  and  _444
REMARK  187  A    between atoms: _448  and  _449
REMARK  188  A    between atoms: _454  and  _456
REMARK  189  A    between atoms: _456  and  _457
REMARK  190  A    between atoms: _456  and  _459
REMARK  191  A    between atoms: _459  and  _460
REMARK  192  A    between atoms: _463  and  _465
REMARK  193  A    between atoms: _465  and  _466
REMARK  194  A    between atoms: _465  and  _468
REMARK  195  A    between atoms: _468  and  _469
REMARK  196  A    between atoms: _474  and  _476
REMARK  197  A    between atoms: _476  and  _477
REMARK  198  A    between atoms: _476  and  _479
REMARK  199  A    between atoms: _479  and  _480
REMARK  200  A    between atoms: _483  and  _485
REMARK  201  A    between atoms: _485  and  _486
REMARK  202  A    between atoms: _485  and  _488
REMARK  203  A    between atoms: _488  and  _489
REMARK  204  A    between atoms: _492  and  _494
REMARK  205  A    between atoms: _494  and  _495
REMARK  206  A    between atoms: _497  and  _499
REMARK  207  A    between atoms: _499  and  _500
REMARK  208  A    between atoms: _499  and  _502
REMARK  209  A    between atoms: _502  and  _503
REMARK  210  A    between atoms: _503  and  _504
REMARK  211  A    between atoms: _504  and  _505
REMARK  212  A    between atoms: _514  and  _516
REMARK  213  A    between atoms: _516  and  _517
REMARK  214  A    between atoms: _516  and  _519
REMARK  215  A    between atoms: _519  and  _520
REMARK                            x       y       z     vdW  Elec       q    Type
REMARK                         _______ _______ _______ _____ _____    ______ ____
ROOT
ATOM      1  C   GLY A   3      -9.236  10.707  28.799  0.00  0.00    +0.243 C 
ATOM      2  O   GLY A   3      -9.745   9.589  28.836  0.00  0.00    -0.273 OA
ATOM      3  N   ILE A   4      -8.886  11.265  27.664  0.00  0.00    -0.297 N 
ATOM      4  H   ILE A   4      -8.386  12.177  27.662  0.00  0.00    +0.150 HD
ENDROOT
BRANCH   3   5
ATOM      5  CA  ILE A   4      -9.204  10.596  26.400  0.00  0.00    +0.149 C 
BRANCH   5   6
ATOM      6  C   ILE A   4      -8.269   9.432  26.170  0.00  0.00    +0.241 C 
ATOM      7  N   GLY A   5      -6.958   9.521  26.334  0.00  0.00    -0.295 N 
ATOM      8  H   GLY A   5      -6.539  10.405  26.688  0.00  0.00    +0.150 HD
ATOM      9  O   ILE A   4      -8.793   8.348  25.850  0.00  0.00    -0.273 OA
BRANCH   7  10
ATOM     10  CA  GLY A   5      -6.103   8.390  26.022  0.00  0.00    +0.176 C 
BRANCH  10  11
ATOM     11  C   GLY A   5      -5.985   7.351  27.113  0.00  0.00    +0.243 C 
ATOM     12  N   GLY A   6      -6.782   7.383  28.160  0.00  0.00    -0.296 N 
ATOM     13  H   GLY A   6      -7.537   8.098  28.169  0.00  0.00    +0.150 HD
ATOM     14  O   GLY A   5      -5.156   6.436  27.022  0.00  0.00    -0.273 OA
BRANCH  12  15
ATOM     15  CA  GLY A   6      -6.685   6.497  29.300  0.00  0.00    +0.163 C 
BRANCH  15  16
ATOM     16  C   GLY A   6      -6.641   7.241  30.650  0.00  0.00    +0.229 C 
ATOM     17  O   GLY A   6      -7.267   8.294  30.840  0.00  0.00    -0.286 OA
ENDBRANCH  15  16
ENDBRANCH  12  15
ENDBRANCH  10  11
ENDBRANCH   7  10
ENDBRANCH   5   6
BRANCH   5  18
ATOM     18  CB  ILE A   4      -9.257  11.565  25.219  0.00  0.00    +0.027 C 
ATOM     19  CG2 ILE A   4      -8.012  11.524  24.346  0.00  0.00    +0.002 C 
BRANCH  18  20
ATOM     20  CG1 ILE A   4     -10.484  11.150  24.379  0.00  0.00    +0.002 C 
ATOM     21  CD1 ILE A   4     -11.155  12.293  23.659  0.00  0.00    +0.000 C 
ENDBRANCH  18  20
ENDBRANCH   5  18
ENDBRANCH   3   5
BRANCH   1  22
ATOM     22  CA  GLY A   3      -8.896  11.482  30.063  0.00  0.00    +0.176 C 
BRANCH  22  25
ATOM     23  C   GLY A   2      -9.613  10.665  32.234  0.00  0.00    +0.243 C 
ATOM     24  O   GLY A   2     -10.201  11.731  32.447  0.00  0.00    -0.273 OA
ATOM     25  N   GLY A   3      -8.937  10.446  31.125  0.00  0.00    -0.295 N 
ATOM     26  H   GLY A   3      -8.432   9.547  30.993  0.00  0.00    +0.150 HD
BRANCH  23  27
ATOM     27  CA  GLY A   2      -9.579   9.525  33.243  0.00  0.00    +0.176 C 
BRANCH  27  30
ATOM     28  C   ILE A   1      -8.281   9.897  35.264  0.00  0.00    +0.238 C 
ATOM     29  O   ILE A   1      -7.305   9.267  34.857  0.00  0.00    -0.274 OA
ATOM     30  N   GLY A   2      -9.389  10.081  34.579  0.00  0.00    -0.296 N 
ATOM     31  H   GLY A   2     -10.155  10.641  35.004  0.00  0.00    +0.150 HD
BRANCH  28  32
ATOM     32  CA  ILE A   1      -8.287  10.583  36.629  0.00  0.00    +0.145 C 
BRANCH  32  33
ATOM     33  N   ILE A   1      -7.237   9.984  37.442  0.00  0.00    -0.238 NA
ATOM     34  H   ILE A   1      -6.253  10.024  37.107  0.00  0.00    +0.142 HD
ENDBRANCH  32  33
BRANCH  32  35
ATOM     35  CB  ILE A   1      -7.980  12.067  36.459  0.00  0.00    +0.025 C 
ATOM     36  CG2 ILE A   1      -8.341  12.888  37.671  0.00  0.00    +0.002 C 
BRANCH  35  37
ATOM     37  CG1 ILE A   1      -6.457  12.167  36.287  0.00  0.00    +0.002 C 
ATOM     38  CD1 ILE A   1      -6.087  13.534  35.746  0.00  0.00    +0.000 C 
ENDBRANCH  35  37
ENDBRANCH  32  35
ENDBRANCH  28  32
ENDBRANCH  27  30
ENDBRANCH  23  27
ENDBRANCH  22  25
ENDBRANCH   1  22
TORSDOF 16
REMARK  Name = ../refined-set-2016/1gnm/1gnm_pocket.pdb
REMARK  215 active torsions:
REMARK  status: ('A' for Active; 'I' for Inactive)
REMARK    1  A    between atoms: _1  and  _3
REMARK    2  A    between atoms: _3  and  _4
REMARK    3  A    between atoms: _3  and  _6
REMARK    4  A    between atoms: _6  and  _7
REMARK    5  A    between atoms: _7  and  _8
REMARK    6  A    between atoms: _8  and  _9
REMARK    7  A    between atoms: _18  and  _20
REMARK    8  A    between atoms: _20  and  _21
REMARK    9  A    between atoms: _20  and  _23
REMARK   10  A    between atoms: _23  and  _24
REMARK   11  A    between atoms: _27  and  _29
REMARK   12  A    between atoms: _29  and  _30
REMARK   13  A    between atoms: _29  and  _32
REMARK   14  A    between atoms: _32  and  _33
REMARK   15  A    between atoms: _36  and  _38
REMARK   16  A    between atoms: _38  and  _39
REMARK   17  A    between atoms: _38  and  _41
REMARK   18  A    between atoms: _41  and  _42
REMARK   19  A    between atoms: _45  and  _47
REMARK   20  A    between atoms: _47  and  _48
REMARK   21  A    between atoms: _47  and  _50
REMARK   22  A    between atoms: _50  and  _51
REMARK   23  A    between atoms: _54  and  _56
REMARK   24  A    between atoms: _56  and  _57
REMARK   25  A    between atoms: _56  and  _59
REMARK   26  A    between atoms: _59  and  _60
REMARK   27  A    between atoms: _63  and  _65
REMARK   28  A    between atoms: _65  and  _66
REMARK   29  A    between atoms: _68  and  _70
REMARK   30  A    between atoms: _70  and  _71
REMARK   31  A    between atoms: _74  and  _76
REMARK   32  A    between atoms: _76  and  _77
REMARK   33  A    between atoms: _76  and  _79
REMARK   34  A    between atoms: _79  and  _80
REMARK   35  A    between atoms: _83  and  _85
REMARK   36  A    between atoms: _85  and  _86
REMARK   37  A    between atoms: _85  and  _88
REMARK   38  A    between atoms: _88  and  _89
REMARK   39  A    between atoms: _92  and  _94
REMARK   40  A    between atoms: _94  and  _95
REMARK   41  A    between atoms: _94  and  _97
REMARK   42  A    between atoms: _97  and  _98
REMARK   43  A    between atoms: _101  and  _103
REMARK   44  A    between atoms: _103  and  _104
REMARK   45  A    between atoms: _103  and  _106
REMARK   46  A    between atoms: _109  and  _111
REMARK   47  A    between atoms: _111  and  _112
REMARK   48  A    between atoms: _111  and  _114
REMARK   49  A    between atoms: _114  and  _115
REMARK   50  A    between atoms: _118  and  _120
REMARK   51  A    between atoms: _120  and  _121
REMARK   52  A    between atoms: _123  and  _125
REMARK   53  A    between atoms: _125  and  _126
REMARK   54  A    between atoms: _128  and  _130
REMARK   55  A    between atoms: _130  and  _131
REMARK   56  A    between atoms: _130  and  _133
REMARK   57  A    between atoms: _133  and  _134
REMARK   58  A    between atoms: _137  and  _139
REMARK   59  A    between atoms: _139  and  _140
REMARK   60  A    between atoms: _142  and  _144
REMARK   61  A    between atoms: _144  and  _145
REMARK   62  A    between atoms: _147  and  _149
REMARK   63  A    between atoms: _149  and  _150
REMARK   64  A    between atoms: _149  and  _152
REMARK   65  A    between atoms: _152  and  _153
REMARK   66  A    between atoms: _156  and  _158
REMARK   67  A    between atoms: _158  and  _159
REMARK   68  A    between atoms: _158  and  _161
REMARK   69  A    between atoms: _161  and  _162
REMARK   70  A    between atoms: _165  and  _167
REMARK   71  A    between atoms: _167  and  _168
REMARK   72  A    between atoms: _167  and  _170
REMARK   73  A    between atoms: _170  and  _171
REMARK   74  A    between atoms: _175  and  _176
REMARK   75  A    between atoms: _181  and  _183
REMARK   76  A    between atoms: _183  and  _184
REMARK   77  A    between atoms: _183  and  _186
REMARK   78  A    between atoms: _186  and  _187
REMARK   79  A    between atoms: _190  and  _192
REMARK   80  A    between atoms: _192  and  _193
REMARK   81  A    between atoms: _192  and  _195
REMARK   82  A    between atoms: _195  and  _196
REMARK   83  A    between atoms: _201  and  _203
REMARK   84  A    between atoms: _203  and  _204
REMARK   85  A    between atoms: _203  and  _206
REMARK   86  A    between atoms: _206  and  _207
REMARK   87  A    between atoms: _210  and  _212
REMARK   88  A    between atoms: _212  and  _213
REMARK   89  A    between atoms: _212  and  _215
REMARK   90  A    between atoms: _215  and  _216
REMARK   91  A    between atoms: _219  and  _221
REMARK   92  A    between atoms: _221  and  _222
REMARK   93  A    between atoms: _224  and  _226
REMARK   94  A    between atoms: _226  and  _227
REMARK   95  A    between atoms: _226  and  _229
REMARK   96  A    between atoms: _229  and  _230
REMARK   97  A    between atoms: _230  and  _231
REMARK   98  A    between atoms: _231  and  _232
REMARK   99  A    between atoms: _241  and  _243
REMARK  100  A    between atoms: _243  and  _244
REMARK  101  A    between atoms: _243  and  _246
REMARK  102  A    between atoms: _246  and  _247
REMARK  103  A    between atoms: _247  and  _248
REMARK  104  A    between atoms: _248  and  _249
REMARK  105  A    between atoms: _258  and  _260
REMARK  106  A    between atoms: _260  and  _261
REMARK  107  A    between atoms: _260  and  _263
REMARK  108  A    between atoms: _263  and  _264
REMARK  109  A    between atoms: _267  and  _269
REMARK  110  A    between atoms: _269  and  _270
REMARK  111  A    between atoms: _269  and  _272
REMARK  112  A    between atoms: _272  and  _273
REMARK  113  A    between atoms: _276  and  _278
REMARK  114  A    between atoms: _278  and  _279
REMARK  115  A    between atoms: _278  and  _281
REMARK  116  A    between atoms: _281  and  _282
REMARK  117  A    between atoms: _285  and  _287
REMARK  118  A    between atoms: _287  and  _288
REMARK  119  A    between atoms: _287  and  _290
REMARK  120  A    between atoms: _290  and  _291
REMARK  121  A    between atoms: _294  and  _296
REMARK  122  A    between atoms: _296  and  _297
REMARK  123  A    between atoms: _299  and  _301
REMARK  124  A    between atoms: _301  and  _302
REMARK  125  A    between atoms: _305  and  _307
REMARK  126  A    between atoms: _307  and  _308
REMARK  127  A    between atoms: _307  and  _310
REMARK  128  A    between atoms: _310  and  _311
REMARK  129  A    between atoms: _314  and  _316
REMARK  130  A    between atoms: _316  and  _317
REMARK  131  A    between atoms: _316  and  _319
REMARK  132  A    between atoms: _319  and  _320
REMARK  133  A    between atoms: _323  and  _325
REMARK  134  A    between atoms: _325  and  _326
REMARK  135  A    between atoms: _325  and  _328
REMARK  136  A    between atoms: _328  and  _329
REMARK  137  A    between atoms: _332  and  _334
REMARK  138  A    between atoms: _334  and  _335
REMARK  139  A    between atoms: _334  and  _337
REMARK  140  A    between atoms: _340  and  _342
REMARK  141  A    between atoms: _342  and  _343
REMARK  142  A    between atoms: _342  and  _345
REMARK  143  A    between atoms: _345  and  _346
REMARK  144  A    between atoms: _346  and  _347
REMARK  145  A    between atoms: _347  and  _348
REMARK  146  A    between atoms: _348  and  _349
REMARK  147  A    between atoms: _353  and  _355
REMARK  148  A    between atoms: _355  and  _356
REMARK  149  A    between atoms: _355  and  _358
REMARK  150  A    between atoms: _358  and  _359
REMARK  151  A    between atoms: _359  and  _360
REMARK  152  A    between atoms: _362  and  _364
REMARK  153  A    between atoms: _364  and  _365
REMARK  154  A    between atoms: _364  and  _367
REMARK  155  A    between atoms: _367  and  _368
REMARK  156  A    between atoms: _371  and  _373
REMARK  157  A    between atoms: _373  and  _374
REMARK  158  A    between atoms: _376  and  _378
REMARK  159  A    between atoms: _378  and  _379
REMARK  160  A    between atoms: _381  and  _383
REMARK  161  A    between atoms: _383  and  _384
REMARK  162  A    between atoms: _383  and  _386
REMARK  163  A    between atoms: _386  and  _387
REMARK  164  A    between atoms: _390  and  _392
REMARK  165  A    between atoms: _392  and  _393
REMARK  166  A    between atoms: _395  and  _397
REMARK  167  A    between atoms: _397  and  _398
REMARK  168  A    between atoms: _400  and  _402
REMARK  169  A    between atoms: _402  and  _403
REMARK  170  A    between atoms: _402  and  _405
REMARK  171  A    between atoms: _405  and  _406
REMARK  172  A    between atoms: _412  and  _414
REMARK  173  A    between atoms: _414  and  _415
REMARK  174  A    between atoms: _414  and  _417
REMARK  175  A    between atoms: _417  and  _418
REMARK  176  A    between atoms: _421  and  _423
REMARK  177  A    between atoms: _423  and  _424
REMARK  178  A    between atoms: _423  and  _426
REMARK  179  A    between atoms: _429  and  _431
REMARK  180  A    between atoms: _431  and  _432
REMARK  181  A    between atoms: _431  and  _434
REMARK  182  A    between atoms: _434  and  _435
REMARK  183  A    between atoms: _438  and  _440
REMARK  184  A    between atoms: _440  and  _441
REMARK  185  A    between atoms: _440  and  _443
REMARK  186  A    between atoms: _443  and  _444
REMARK  187  A    between atoms: _448  and  _449
REMARK  188  A    between atoms: _454  and  _456
REMARK  189  A    between atoms: _456  and  _457
REMARK  190  A    between atoms: _456  and  _459
REMARK  191  A    between atoms: _459  and  _460
REMARK  192  A    between atoms: _463  and  _465
REMARK  193  A    between atoms: _465  and  _466
REMARK  194  A    between atoms: _465  and  _468
REMARK  195  A    between atoms: _468  and  _469
REMARK  196  A    between atoms: _474  and  _476
REMARK  197  A    between atoms: _476  and  _477
REMARK  198  A    between atoms: _476  and  _479
REMARK  199  A    between atoms: _479  and  _480
REMARK  200  A    between atoms: _483  and  _485
REMARK  201  A    between atoms: _485  and  _486
REMARK  202  A    between atoms: _485  and  _488
REMARK  203  A    between atoms: _488  and  _489
REMARK  204  A    between atoms: _492  and  _494
REMARK  205  A    between atoms: _494  and  _495
REMARK  206  A    between atoms: _497  and  _499
REMARK  207  A    between atoms: _499  and  _500
REMARK  208  A    between atoms: _499  and  _502
REMARK  209  A    between atoms: _502  and  _503
REMARK  210  A    between atoms: _503  and  _504
REMARK  211  A    between atoms: _504  and  _505
REMARK  212  A    between atoms: _514  and  _516
REMARK  213  A    between atoms: _516  and  _517
REMARK  214  A    between atoms: _516  and  _519
REMARK  215  A    between atoms: _519  and  _520
REMARK                            x       y       z     vdW  Elec       q    Type
REMARK                         _______ _______ _______ _____ _____    ______ ____
ROOT
ATOM      1  CA  ILE A   1      -3.180   9.001  34.796  0.00  0.00    +0.133 C 
ENDROOT
BRANCH   1   2
ATOM      2  N   ILE A   1      -4.407   8.643  34.085  0.00  0.00    -0.239 NA
ATOM      3  H   ILE A   1      -5.205   9.310  34.080  0.00  0.00    +0.142 HD
ENDBRANCH   1   2
BRANCH   1   4
ATOM      4  C   ILE A   1      -3.428   8.896  36.328  0.00  0.00    +0.224 C 
ATOM      5  O   ILE A   1      -4.530   8.895  36.860  0.00  0.00    -0.287 OA
ENDBRANCH   1   4
BRANCH   1   6
ATOM      6  CB  ILE A   1      -2.505  10.346  34.462  0.00  0.00    +0.023 C 
ATOM      7  CG2 ILE A   1      -1.854  10.191  33.097  0.00  0.00    +0.002 C 
BRANCH   6   8
ATOM      8  CG1 ILE A   1      -3.431  11.540  34.508  0.00  0.00    +0.002 C 
ATOM      9  CD1 ILE A   1      -2.807  12.905  34.636  0.00  0.00    +0.000 C 
ENDBRANCH   6   8
ENDBRANCH   1   6
TORSDOF 4
REMARK  Name = ../refined-set-2016/1gnm/1gnm_pocket.pdb
REMARK  215 active torsions:
REMARK  status: ('A' for Active; 'I' for Inactive)
REMARK    1  A    between atoms: _1  and  _3
REMARK    2  A    between atoms: _3  and  _4
REMARK    3  A    between atoms: _3  and  _6
REMARK    4  A    between atoms: _6  and  _7
REMARK    5  A    between atoms: _7  and  _8
REMARK    6  A    between atoms: _8  and  _9
REMARK    7  A    between atoms: _18  and  _20
REMARK    8  A    between atoms: _20  and  _21
REMARK    9  A    between atoms: _20  and  _23
REMARK   10  A    between atoms: _23  and  _24
REMARK   11  A    between atoms: _27  and  _29
REMARK   12  A    between atoms: _29  and  _30
REMARK   13  A    between atoms: _29  and  _32
REMARK   14  A    between atoms: _32  and  _33
REMARK   15  A    between atoms: _36  and  _38
REMARK   16  A    between atoms: _38  and  _39
REMARK   17  A    between atoms: _38  and  _41
REMARK   18  A    between atoms: _41  and  _42
REMARK   19  A    between atoms: _45  and  _47
REMARK   20  A    between atoms: _47  and  _48
REMARK   21  A    between atoms: _47  and  _50
REMARK   22  A    between atoms: _50  and  _51
REMARK   23  A    between atoms: _54  and  _56
REMARK   24  A    between atoms: _56  and  _57
REMARK   25  A    between atoms: _56  and  _59
REMARK   26  A    between atoms: _59  and  _60
REMARK   27  A    between atoms: _63  and  _65
REMARK   28  A    between atoms: _65  and  _66
REMARK   29  A    between atoms: _68  and  _70
REMARK   30  A    between atoms: _70  and  _71
REMARK   31  A    between atoms: _74  and  _76
REMARK   32  A    between atoms: _76  and  _77
REMARK   33  A    between atoms: _76  and  _79
REMARK   34  A    between atoms: _79  and  _80
REMARK   35  A    between atoms: _83  and  _85
REMARK   36  A    between atoms: _85  and  _86
REMARK   37  A    between atoms: _85  and  _88
REMARK   38  A    between atoms: _88  and  _89
REMARK   39  A    between atoms: _92  and  _94
REMARK   40  A    between atoms: _94  and  _95
REMARK   41  A    between atoms: _94  and  _97
REMARK   42  A    between atoms: _97  and  _98
REMARK   43  A    between atoms: _101  and  _103
REMARK   44  A    between atoms: _103  and  _104
REMARK   45  A    between atoms: _103  and  _106
REMARK   46  A    between atoms: _109  and  _111
REMARK   47  A    between atoms: _111  and  _112
REMARK   48  A    between atoms: _111  and  _114
REMARK   49  A    between atoms: _114  and  _115
REMARK   50  A    between atoms: _118  and  _120
REMARK   51  A    between atoms: _120  and  _121
REMARK   52  A    between atoms: _123  and  _125
REMARK   53  A    between atoms: _125  and  _126
REMARK   54  A    between atoms: _128  and  _130
REMARK   55  A    between atoms: _130  and  _131
REMARK   56  A    between atoms: _130  and  _133
REMARK   57  A    between atoms: _133  and  _134
REMARK   58  A    between atoms: _137  and  _139
REMARK   59  A    between atoms: _139  and  _140
REMARK   60  A    between atoms: _142  and  _144
REMARK   61  A    between atoms: _144  and  _145
REMARK   62  A    between atoms: _147  and  _149
REMARK   63  A    between atoms: _149  and  _150
REMARK   64  A    between atoms: _149  and  _152
REMARK   65  A    between atoms: _152  and  _153
REMARK   66  A    between atoms: _156  and  _158
REMARK   67  A    between atoms: _158  and  _159
REMARK   68  A    between atoms: _158  and  _161
REMARK   69  A    between atoms: _161  and  _162
REMARK   70  A    between atoms: _165  and  _167
REMARK   71  A    between atoms: _167  and  _168
REMARK   72  A    between atoms: _167  and  _170
REMARK   73  A    between atoms: _170  and  _171
REMARK   74  A    between atoms: _175  and  _176
REMARK   75  A    between atoms: _181  and  _183
REMARK   76  A    between atoms: _183  and  _184
REMARK   77  A    between atoms: _183  and  _186
REMARK   78  A    between atoms: _186  and  _187
REMARK   79  A    between atoms: _190  and  _192
REMARK   80  A    between atoms: _192  and  _193
REMARK   81  A    between atoms: _192  and  _195
REMARK   82  A    between atoms: _195  and  _196
REMARK   83  A    between atoms: _201  and  _203
REMARK   84  A    between atoms: _203  and  _204
REMARK   85  A    between atoms: _203  and  _206
REMARK   86  A    between atoms: _206  and  _207
REMARK   87  A    between atoms: _210  and  _212
REMARK   88  A    between atoms: _212  and  _213
REMARK   89  A    between atoms: _212  and  _215
REMARK   90  A    between atoms: _215  and  _216
REMARK   91  A    between atoms: _219  and  _221
REMARK   92  A    between atoms: _221  and  _222
REMARK   93  A    between atoms: _224  and  _226
REMARK   94  A    between atoms: _226  and  _227
REMARK   95  A    between atoms: _226  and  _229
REMARK   96  A    between atoms: _229  and  _230
REMARK   97  A    between atoms: _230  and  _231
REMARK   98  A    between atoms: _231  and  _232
REMARK   99  A    between atoms: _241  and  _243
REMARK  100  A    between atoms: _243  and  _244
REMARK  101  A    between atoms: _243  and  _246
REMARK  102  A    between atoms: _246  and  _247
REMARK  103  A    between atoms: _247  and  _248
REMARK  104  A    between atoms: _248  and  _249
REMARK  105  A    between atoms: _258  and  _260
REMARK  106  A    between atoms: _260  and  _261
REMARK  107  A    between atoms: _260  and  _263
REMARK  108  A    between atoms: _263  and  _264
REMARK  109  A    between atoms: _267  and  _269
REMARK  110  A    between atoms: _269  and  _270
REMARK  111  A    between atoms: _269  and  _272
REMARK  112  A    between atoms: _272  and  _273
REMARK  113  A    between atoms: _276  and  _278
REMARK  114  A    between atoms: _278  and  _279
REMARK  115  A    between atoms: _278  and  _281
REMARK  116  A    between atoms: _281  and  _282
REMARK  117  A    between atoms: _285  and  _287
REMARK  118  A    between atoms: _287  and  _288
REMARK  119  A    between atoms: _287  and  _290
REMARK  120  A    between atoms: _290  and  _291
REMARK  121  A    between atoms: _294  and  _296
REMARK  122  A    between atoms: _296  and  _297
REMARK  123  A    between atoms: _299  and  _301
REMARK  124  A    between atoms: _301  and  _302
REMARK  125  A    between atoms: _305  and  _307
REMARK  126  A    between atoms: _307  and  _308
REMARK  127  A    between atoms: _307  and  _310
REMARK  128  A    between atoms: _310  and  _311
REMARK  129  A    between atoms: _314  and  _316
REMARK  130  A    between atoms: _316  and  _317
REMARK  131  A    between atoms: _316  and  _319
REMARK  132  A    between atoms: _319  and  _320
REMARK  133  A    between atoms: _323  and  _325
REMARK  134  A    between atoms: _325  and  _326
REMARK  135  A    between atoms: _325  and  _328
REMARK  136  A    between atoms: _328  and  _329
REMARK  137  A    between atoms: _332  and  _334
REMARK  138  A    between atoms: _334  and  _335
REMARK  139  A    between atoms: _334  and  _337
REMARK  140  A    between atoms: _340  and  _342
REMARK  141  A    between atoms: _342  and  _343
REMARK  142  A    between atoms: _342  and  _345
REMARK  143  A    between atoms: _345  and  _346
REMARK  144  A    between atoms: _346  and  _347
REMARK  145  A    between atoms: _347  and  _348
REMARK  146  A    between atoms: _348  and  _349
REMARK  147  A    between atoms: _353  and  _355
REMARK  148  A    between atoms: _355  and  _356
REMARK  149  A    between atoms: _355  and  _358
REMARK  150  A    between atoms: _358  and  _359
REMARK  151  A    between atoms: _359  and  _360
REMARK  152  A    between atoms: _362  and  _364
REMARK  153  A    between atoms: _364  and  _365
REMARK  154  A    between atoms: _364  and  _367
REMARK  155  A    between atoms: _367  and  _368
REMARK  156  A    between atoms: _371  and  _373
REMARK  157  A    between atoms: _373  and  _374
REMARK  158  A    between atoms: _376  and  _378
REMARK  159  A    between atoms: _378  and  _379
REMARK  160  A    between atoms: _381  and  _383
REMARK  161  A    between atoms: _383  and  _384
REMARK  162  A    between atoms: _383  and  _386
REMARK  163  A    between atoms: _386  and  _387
REMARK  164  A    between atoms: _390  and  _392
REMARK  165  A    between atoms: _392  and  _393
REMARK  166  A    between atoms: _395  and  _397
REMARK  167  A    between atoms: _397  and  _398
REMARK  168  A    between atoms: _400  and  _402
REMARK  169  A    between atoms: _402  and  _403
REMARK  170  A    between atoms: _402  and  _405
REMARK  171  A    between atoms: _405  and  _406
REMARK  172  A    between atoms: _412  and  _414
REMARK  173  A    between atoms: _414  and  _415
REMARK  174  A    between atoms: _414  and  _417
REMARK  175  A    between atoms: _417  and  _418
REMARK  176  A    between atoms: _421  and  _423
REMARK  177  A    between atoms: _423  and  _424
REMARK  178  A    between atoms: _423  and  _426
REMARK  179  A    between atoms: _429  and  _431
REMARK  180  A    between atoms: _431  and  _432
REMARK  181  A    between atoms: _431  and  _434
REMARK  182  A    between atoms: _434  and  _435
REMARK  183  A    between atoms: _438  and  _440
REMARK  184  A    between atoms: _440  and  _441
REMARK  185  A    between atoms: _440  and  _443
REMARK  186  A    between atoms: _443  and  _444
REMARK  187  A    between atoms: _448  and  _449
REMARK  188  A    between atoms: _454  and  _456
REMARK  189  A    between atoms: _456  and  _457
REMARK  190  A    between atoms: _456  and  _459
REMARK  191  A    between atoms: _459  and  _460
REMARK  192  A    between atoms: _463  and  _465
REMARK  193  A    between atoms: _465  and  _466
REMARK  194  A    between atoms: _465  and  _468
REMARK  195  A    between atoms: _468  and  _469
REMARK  196  A    between atoms: _474  and  _476
REMARK  197  A    between atoms: _476  and  _477
REMARK  198  A    between atoms: _476  and  _479
REMARK  199  A    between atoms: _479  and  _480
REMARK  200  A    between atoms: _483  and  _485
REMARK  201  A    between atoms: _485  and  _486
REMARK  202  A    between atoms: _485  and  _488
REMARK  203  A    between atoms: _488  and  _489
REMARK  204  A    between atoms: _492  and  _494
REMARK  205  A    between atoms: _494  and  _495
REMARK  206  A    between atoms: _497  and  _499
REMARK  207  A    between atoms: _499  and  _500
REMARK  208  A    between atoms: _499  and  _502
REMARK  209  A    between atoms: _502  and  _503
REMARK  210  A    between atoms: _503  and  _504
REMARK  211  A    between atoms: _504  and  _505
REMARK  212  A    between atoms: _514  and  _516
REMARK  213  A    between atoms: _516  and  _517
REMARK  214  A    between atoms: _516  and  _519
REMARK  215  A    between atoms: _519  and  _520
REMARK                            x       y       z     vdW  Elec       q    Type
REMARK                         _______ _______ _______ _____ _____    ______ ____
ROOT
ATOM      1  CA  LEU A   1      -4.240  17.709  40.610  0.00  0.00    +0.133 C 
ENDROOT
BRANCH   1   2
ATOM      2  N   LEU A   1      -4.872  18.992  40.871  0.00  0.00    -0.239 NA
ATOM      3  H   LEU A   1      -5.408  19.430  40.095  0.00  0.00    +0.142 HD
ENDBRANCH   1   2
BRANCH   1   4
ATOM      4  C   LEU A   1      -2.923  17.991  39.872  0.00  0.00    +0.224 C 
ATOM      5  O   LEU A   1      -2.742  18.772  38.927  0.00  0.00    -0.287 OA
ENDBRANCH   1   4
BRANCH   1   6
ATOM      6  CB  LEU A   1      -5.108  16.799  39.751  0.00  0.00    +0.025 C 
BRANCH   6   7
ATOM      7  CG  LEU A   1      -6.569  16.738  40.186  0.00  0.00    +0.002 C 
ATOM      8  CD2 LEU A   1      -6.748  16.310  41.624  0.00  0.00    +0.000 C 
ATOM      9  CD1 LEU A   1      -7.309  15.650  39.397  0.00  0.00    +0.000 C 
ENDBRANCH   6   7
ENDBRANCH   1   6
TORSDOF 4
REMARK  Name = ../refined-set-2016/1gnm/1gnm_pocket.pdb
REMARK  215 active torsions:
REMARK  status: ('A' for Active; 'I' for Inactive)
REMARK    1  A    between atoms: _1  and  _3
REMARK    2  A    between atoms: _3  and  _4
REMARK    3  A    between atoms: _3  and  _6
REMARK    4  A    between atoms: _6  and  _7
REMARK    5  A    between atoms: _7  and  _8
REMARK    6  A    between atoms: _8  and  _9
REMARK    7  A    between atoms: _18  and  _20
REMARK    8  A    between atoms: _20  and  _21
REMARK    9  A    between atoms: _20  and  _23
REMARK   10  A    between atoms: _23  and  _24
REMARK   11  A    between atoms: _27  and  _29
REMARK   12  A    between atoms: _29  and  _30
REMARK   13  A    between atoms: _29  and  _32
REMARK   14  A    between atoms: _32  and  _33
REMARK   15  A    between atoms: _36  and  _38
REMARK   16  A    between atoms: _38  and  _39
REMARK   17  A    between atoms: _38  and  _41
REMARK   18  A    between atoms: _41  and  _42
REMARK   19  A    between atoms: _45  and  _47
REMARK   20  A    between atoms: _47  and  _48
REMARK   21  A    between atoms: _47  and  _50
REMARK   22  A    between atoms: _50  and  _51
REMARK   23  A    between atoms: _54  and  _56
REMARK   24  A    between atoms: _56  and  _57
REMARK   25  A    between atoms: _56  and  _59
REMARK   26  A    between atoms: _59  and  _60
REMARK   27  A    between atoms: _63  and  _65
REMARK   28  A    between atoms: _65  and  _66
REMARK   29  A    between atoms: _68  and  _70
REMARK   30  A    between atoms: _70  and  _71
REMARK   31  A    between atoms: _74  and  _76
REMARK   32  A    between atoms: _76  and  _77
REMARK   33  A    between atoms: _76  and  _79
REMARK   34  A    between atoms: _79  and  _80
REMARK   35  A    between atoms: _83  and  _85
REMARK   36  A    between atoms: _85  and  _86
REMARK   37  A    between atoms: _85  and  _88
REMARK   38  A    between atoms: _88  and  _89
REMARK   39  A    between atoms: _92  and  _94
REMARK   40  A    between atoms: _94  and  _95
REMARK   41  A    between atoms: _94  and  _97
REMARK   42  A    between atoms: _97  and  _98
REMARK   43  A    between atoms: _101  and  _103
REMARK   44  A    between atoms: _103  and  _104
REMARK   45  A    between atoms: _103  and  _106
REMARK   46  A    between atoms: _109  and  _111
REMARK   47  A    between atoms: _111  and  _112
REMARK   48  A    between atoms: _111  and  _114
REMARK   49  A    between atoms: _114  and  _115
REMARK   50  A    between atoms: _118  and  _120
REMARK   51  A    between atoms: _120  and  _121
REMARK   52  A    between atoms: _123  and  _125
REMARK   53  A    between atoms: _125  and  _126
REMARK   54  A    between atoms: _128  and  _130
REMARK   55  A    between atoms: _130  and  _131
REMARK   56  A    between atoms: _130  and  _133
REMARK   57  A    between atoms: _133  and  _134
REMARK   58  A    between atoms: _137  and  _139
REMARK   59  A    between atoms: _139  and  _140
REMARK   60  A    between atoms: _142  and  _144
REMARK   61  A    between atoms: _144  and  _145
REMARK   62  A    between atoms: _147  and  _149
REMARK   63  A    between atoms: _149  and  _150
REMARK   64  A    between atoms: _149  and  _152
REMARK   65  A    between atoms: _152  and  _153
REMARK   66  A    between atoms: _156  and  _158
REMARK   67  A    between atoms: _158  and  _159
REMARK   68  A    between atoms: _158  and  _161
REMARK   69  A    between atoms: _161  and  _162
REMARK   70  A    between atoms: _165  and  _167
REMARK   71  A    between atoms: _167  and  _168
REMARK   72  A    between atoms: _167  and  _170
REMARK   73  A    between atoms: _170  and  _171
REMARK   74  A    between atoms: _175  and  _176
REMARK   75  A    between atoms: _181  and  _183
REMARK   76  A    between atoms: _183  and  _184
REMARK   77  A    between atoms: _183  and  _186
REMARK   78  A    between atoms: _186  and  _187
REMARK   79  A    between atoms: _190  and  _192
REMARK   80  A    between atoms: _192  and  _193
REMARK   81  A    between atoms: _192  and  _195
REMARK   82  A    between atoms: _195  and  _196
REMARK   83  A    between atoms: _201  and  _203
REMARK   84  A    between atoms: _203  and  _204
REMARK   85  A    between atoms: _203  and  _206
REMARK   86  A    between atoms: _206  and  _207
REMARK   87  A    between atoms: _210  and  _212
REMARK   88  A    between atoms: _212  and  _213
REMARK   89  A    between atoms: _212  and  _215
REMARK   90  A    between atoms: _215  and  _216
REMARK   91  A    between atoms: _219  and  _221
REMARK   92  A    between atoms: _221  and  _222
REMARK   93  A    between atoms: _224  and  _226
REMARK   94  A    between atoms: _226  and  _227
REMARK   95  A    between atoms: _226  and  _229
REMARK   96  A    between atoms: _229  and  _230
REMARK   97  A    between atoms: _230  and  _231
REMARK   98  A    between atoms: _231  and  _232
REMARK   99  A    between atoms: _241  and  _243
REMARK  100  A    between atoms: _243  and  _244
REMARK  101  A    between atoms: _243  and  _246
REMARK  102  A    between atoms: _246  and  _247
REMARK  103  A    between atoms: _247  and  _248
REMARK  104  A    between atoms: _248  and  _249
REMARK  105  A    between atoms: _258  and  _260
REMARK  106  A    between atoms: _260  and  _261
REMARK  107  A    between atoms: _260  and  _263
REMARK  108  A    between atoms: _263  and  _264
REMARK  109  A    between atoms: _267  and  _269
REMARK  110  A    between atoms: _269  and  _270
REMARK  111  A    between atoms: _269  and  _272
REMARK  112  A    between atoms: _272  and  _273
REMARK  113  A    between atoms: _276  and  _278
REMARK  114  A    between atoms: _278  and  _279
REMARK  115  A    between atoms: _278  and  _281
REMARK  116  A    between atoms: _281  and  _282
REMARK  117  A    between atoms: _285  and  _287
REMARK  118  A    between atoms: _287  and  _288
REMARK  119  A    between atoms: _287  and  _290
REMARK  120  A    between atoms: _290  and  _291
REMARK  121  A    between atoms: _294  and  _296
REMARK  122  A    between atoms: _296  and  _297
REMARK  123  A    between atoms: _299  and  _301
REMARK  124  A    between atoms: _301  and  _302
REMARK  125  A    between atoms: _305  and  _307
REMARK  126  A    between atoms: _307  and  _308
REMARK  127  A    between atoms: _307  and  _310
REMARK  128  A    between atoms: _310  and  _311
REMARK  129  A    between atoms: _314  and  _316
REMARK  130  A    between atoms: _316  and  _317
REMARK  131  A    between atoms: _316  and  _319
REMARK  132  A    between atoms: _319  and  _320
REMARK  133  A    between atoms: _323  and  _325
REMARK  134  A    between atoms: _325  and  _326
REMARK  135  A    between atoms: _325  and  _328
REMARK  136  A    between atoms: _328  and  _329
REMARK  137  A    between atoms: _332  and  _334
REMARK  138  A    between atoms: _334  and  _335
REMARK  139  A    between atoms: _334  and  _337
REMARK  140  A    between atoms: _340  and  _342
REMARK  141  A    between atoms: _342  and  _343
REMARK  142  A    between atoms: _342  and  _345
REMARK  143  A    between atoms: _345  and  _346
REMARK  144  A    between atoms: _346  and  _347
REMARK  145  A    between atoms: _347  and  _348
REMARK  146  A    between atoms: _348  and  _349
REMARK  147  A    between atoms: _353  and  _355
REMARK  148  A    between atoms: _355  and  _356
REMARK  149  A    between atoms: _355  and  _358
REMARK  150  A    between atoms: _358  and  _359
REMARK  151  A    between atoms: _359  and  _360
REMARK  152  A    between atoms: _362  and  _364
REMARK  153  A    between atoms: _364  and  _365
REMARK  154  A    between atoms: _364  and  _367
REMARK  155  A    between atoms: _367  and  _368
REMARK  156  A    between atoms: _371  and  _373
REMARK  157  A    between atoms: _373  and  _374
REMARK  158  A    between atoms: _376  and  _378
REMARK  159  A    between atoms: _378  and  _379
REMARK  160  A    between atoms: _381  and  _383
REMARK  161  A    between atoms: _383  and  _384
REMARK  162  A    between atoms: _383  and  _386
REMARK  163  A    between atoms: _386  and  _387
REMARK  164  A    between atoms: _390  and  _392
REMARK  165  A    between atoms: _392  and  _393
REMARK  166  A    between atoms: _395  and  _397
REMARK  167  A    between atoms: _397  and  _398
REMARK  168  A    between atoms: _400  and  _402
REMARK  169  A    between atoms: _402  and  _403
REMARK  170  A    between atoms: _402  and  _405
REMARK  171  A    between atoms: _405  and  _406
REMARK  172  A    between atoms: _412  and  _414
REMARK  173  A    between atoms: _414  and  _415
REMARK  174  A    between atoms: _414  and  _417
REMARK  175  A    between atoms: _417  and  _418
REMARK  176  A    between atoms: _421  and  _423
REMARK  177  A    between atoms: _423  and  _424
REMARK  178  A    between atoms: _423  and  _426
REMARK  179  A    between atoms: _429  and  _431
REMARK  180  A    between atoms: _431  and  _432
REMARK  181  A    between atoms: _431  and  _434
REMARK  182  A    between atoms: _434  and  _435
REMARK  183  A    between atoms: _438  and  _440
REMARK  184  A    between atoms: _440  and  _441
REMARK  185  A    between atoms: _440  and  _443
REMARK  186  A    between atoms: _443  and  _444
REMARK  187  A    between atoms: _448  and  _449
REMARK  188  A    between atoms: _454  and  _456
REMARK  189  A    between atoms: _456  and  _457
REMARK  190  A    between atoms: _456  and  _459
REMARK  191  A    between atoms: _459  and  _460
REMARK  192  A    between atoms: _463  and  _465
REMARK  193  A    between atoms: _465  and  _466
REMARK  194  A    between atoms: _465  and  _468
REMARK  195  A    between atoms: _468  and  _469
REMARK  196  A    between atoms: _474  and  _476
REMARK  197  A    between atoms: _476  and  _477
REMARK  198  A    between atoms: _476  and  _479
REMARK  199  A    between atoms: _479  and  _480
REMARK  200  A    between atoms: _483  and  _485
REMARK  201  A    between atoms: _485  and  _486
REMARK  202  A    between atoms: _485  and  _488
REMARK  203  A    between atoms: _488  and  _489
REMARK  204  A    between atoms: _492  and  _494
REMARK  205  A    between atoms: _494  and  _495
REMARK  206  A    between atoms: _497  and  _499
REMARK  207  A    between atoms: _499  and  _500
REMARK  208  A    between atoms: _499  and  _502
REMARK  209  A    between atoms: _502  and  _503
REMARK  210  A    between atoms: _503  and  _504
REMARK  211  A    between atoms: _504  and  _505
REMARK  212  A    between atoms: _514  and  _516
REMARK  213  A    between atoms: _516  and  _517
REMARK  214  A    between atoms: _516  and  _519
REMARK  215  A    between atoms: _519  and  _520
REMARK                            x       y       z     vdW  Elec       q    Type
REMARK                         _______ _______ _______ _____ _____    ______ ____
ROOT
ATOM      1  C   ASN A   4      -3.371  22.966  32.206  0.00  0.00    +0.241 C 
ATOM      2  N   ILE A   5      -4.247  22.406  33.009  0.00  0.00    -0.297 N 
ATOM      3  H   ILE A   5      -3.893  21.916  33.855  0.00  0.00    +0.150 HD
ATOM      4  O   ASN A   4      -3.682  23.636  31.214  0.00  0.00    -0.273 OA
ENDROOT
BRANCH   2   5
ATOM      5  CA  ILE A   5      -5.697  22.433  32.780  0.00  0.00    +0.149 C 
BRANCH   5   6
ATOM      6  C   ILE A   5      -6.432  23.059  33.964  0.00  0.00    +0.241 C 
ATOM      7  O   ILE A   5      -6.332  22.651  35.109  0.00  0.00    -0.273 OA
ATOM      8  N   ILE A   6      -7.184  24.161  33.756  0.00  0.00    -0.297 N 
ATOM      9  H   ILE A   6      -7.129  24.593  32.811  0.00  0.00    +0.150 HD
BRANCH   8  10
ATOM     10  CA  ILE A   6      -8.057  24.801  34.711  0.00  0.00    +0.149 C 
BRANCH  10  11
ATOM     11  C   ILE A   6      -9.454  24.215  34.430  0.00  0.00    +0.241 C 
ATOM     12  N   GLY A   7      -9.998  23.329  35.255  0.00  0.00    -0.295 N 
ATOM     13  H   GLY A   7      -9.440  23.052  36.088  0.00  0.00    +0.150 HD
ATOM     14  O   ILE A   6     -10.009  24.565  33.396  0.00  0.00    -0.273 OA
BRANCH  12  15
ATOM     15  CA  GLY A   7     -11.279  22.723  35.100  0.00  0.00    +0.176 C 
BRANCH  15  16
ATOM     16  C   GLY A   7     -12.392  23.503  35.787  0.00  0.00    +0.243 C 
ATOM     17  O   GLY A   7     -12.170  24.638  36.259  0.00  0.00    -0.273 OA
ATOM     18  N   ARG A   8     -13.566  22.844  35.828  0.00  0.00    -0.298 N 
ATOM     19  H   ARG A   8     -13.615  21.853  35.515  0.00  0.00    +0.150 HD
BRANCH  18  20
ATOM     20  CA  ARG A   8     -14.773  23.517  36.311  0.00  0.00    +0.137 C 
BRANCH  20  21
ATOM     21  C   ARG A   8     -14.792  23.651  37.821  0.00  0.00    +0.227 C 
ATOM     22  O   ARG A   8     -15.546  24.423  38.425  0.00  0.00    -0.286 OA
ENDBRANCH  20  21
BRANCH  20  23
ATOM     23  CB  ARG A   8     -16.050  22.859  35.817  0.00  0.00    +0.031 C 
BRANCH  23  24
ATOM     24  CG  ARG A   8     -16.309  22.641  34.333  0.00  0.00    +0.045 C 
BRANCH  24  25
ATOM     25  CD  ARG A   8     -17.631  21.909  34.026  0.00  0.00    +0.174 C 
BRANCH  25  26
ATOM     26  NE  ARG A   8     -17.592  20.486  34.376  0.00  0.00    -0.265 N 
ATOM     27  CZ  ARG A   8     -18.290  20.116  35.434  0.00  0.00    +0.342 C 
ATOM     28  NH2 ARG A   8     -18.792  21.047  36.248  0.00  0.00    -0.292 N 
ATOM     29 HH21 ARG A   8     -19.343  20.765  37.084  0.00  0.00    +0.255 HD
ATOM     30 HH22 ARG A   8     -18.632  22.055  36.047  0.00  0.00    +0.255 HD
ATOM     31  NH1 ARG A   8     -18.502  18.845  35.659  0.00  0.00    -0.292 N 
ATOM     32 HH11 ARG A   8     -19.051  18.549  36.491  0.00  0.00    +0.255 HD
ATOM     33 HH12 ARG A   8     -18.121  18.131  35.006  0.00  0.00    +0.255 HD
ATOM     34  HE  ARG A   8     -17.042  19.802  33.819  0.00  0.00    +0.259 HD
ENDBRANCH  25  26
ENDBRANCH  24  25
ENDBRANCH  23  24
ENDBRANCH  20  23
ENDBRANCH  18  20
ENDBRANCH  15  16
ENDBRANCH  12  15
ENDBRANCH  10  11
BRANCH  10  35
ATOM     35  CB  ILE A   6      -8.137  26.326  34.586  0.00  0.00    +0.027 C 
ATOM     36  CG2 ILE A   6      -8.841  26.899  35.828  0.00  0.00    +0.002 C 
BRANCH  35  37
ATOM     37  CG1 ILE A   6      -6.805  27.034  34.574  0.00  0.00    +0.002 C 
ATOM     38  CD1 ILE A   6      -5.882  26.750  35.750  0.00  0.00    +0.000 C 
ENDBRANCH  35  37
ENDBRANCH  10  35
ENDBRANCH   8  10
ENDBRANCH   5   6
BRANCH   5  39
ATOM     39  CB  ILE A   5      -6.084  20.967  32.479  0.00  0.00    +0.027 C 
ATOM     40  CG2 ILE A   5      -7.471  20.580  32.907  0.00  0.00    +0.002 C 
BRANCH  39  41
ATOM     41  CG1 ILE A   5      -5.988  20.625  31.001  0.00  0.00    +0.002 C 
ATOM     42  CD1 ILE A   5      -6.080  19.112  30.828  0.00  0.00    +0.000 C 
ENDBRANCH  39  41
ENDBRANCH   5  39
ENDBRANCH   2   5
BRANCH   1  43
ATOM     43  CA  ASN A   4      -1.902  22.735  32.577  0.00  0.00    +0.158 C 
BRANCH  43  46
ATOM     44  C   ASP A   3      -1.393  21.105  30.859  0.00  0.00    +0.241 C 
ATOM     45  O   ASP A   3      -1.980  20.231  31.475  0.00  0.00    -0.273 OA
ATOM     46  N   ASN A   4      -1.257  22.324  31.333  0.00  0.00    -0.297 N 
ATOM     47  H   ASN A   4      -0.677  23.011  30.810  0.00  0.00    +0.150 HD
BRANCH  44  48
ATOM     48  CA  ASP A   3      -0.794  20.787  29.498  0.00  0.00    +0.160 C 
BRANCH  48  50
ATOM     49  C   PRO A   2       0.362  18.728  28.783  0.00  0.00    +0.241 C 
ATOM     50  N   ASP A   3      -0.685  19.367  29.260  0.00  0.00    -0.297 N 
ATOM     51  H   ASP A   3      -1.519  18.790  29.489  0.00  0.00    +0.150 HD
ATOM     52  O   PRO A   2       1.380  19.374  28.530  0.00  0.00    -0.273 OA
BRANCH  49  59
ATOM     53  C   THR A   1      -0.076  16.518  30.915  0.00  0.00    +0.244 C 
ATOM     54  O   THR A   1       1.046  16.847  31.271  0.00  0.00    -0.273 OA
ATOM     55  N   PRO A   2      -0.493  16.602  29.654  0.00  0.00    -0.272 N 
ATOM     56  CD  PRO A   2      -1.452  15.663  29.019  0.00  0.00    +0.094 C 
ATOM     57  CG  PRO A   2      -1.610  16.268  27.641  0.00  0.00    +0.024 C 
ATOM     58  CB  PRO A   2      -0.227  16.684  27.288  0.00  0.00    +0.031 C 
ATOM     59  CA  PRO A   2       0.333  17.212  28.619  0.00  0.00    +0.152 C 
BRANCH  53  60
ATOM     60  CA  THR A   1      -1.012  15.899  31.949  0.00  0.00    +0.172 C 
BRANCH  60  61
ATOM     61  N   THR A   1      -0.127  15.383  32.996  0.00  0.00    -0.236 NA
ATOM     62  H   THR A   1      -0.005  15.949  33.860  0.00  0.00    +0.142 HD
ENDBRANCH  60  61
BRANCH  60  63
ATOM     63  CB  THR A   1      -1.931  16.953  32.579  0.00  0.00    +0.135 C 
ATOM     64  CG2 THR A   1      -1.103  17.883  33.412  0.00  0.00    +0.034 C 
BRANCH  63  65
ATOM     65  OG1 THR A   1      -2.695  17.619  31.572  0.00  0.00    -0.383 OA
ATOM     66  HG1 THR A   1      -2.082  18.066  30.936  0.00  0.00    +0.210 HD
ENDBRANCH  63  65
ENDBRANCH  60  63
ENDBRANCH  53  60
ENDBRANCH  49  59
ENDBRANCH  48  50
BRANCH  48  67
ATOM     67  CB  ASP A   3      -1.862  21.311  28.508  0.00  0.00    +0.143 C 
BRANCH  67  68
ATOM     68  CG  ASP A   3      -1.262  21.988  27.293  0.00  0.00    +0.367 C 
ATOM     69  OD2 ASP A   3      -0.745  23.129  27.469  0.00  0.00    -0.246 OA
ATOM     70  OD1 ASP A   3      -1.360  21.340  26.205  0.00  0.00    -0.246 OA
ENDBRANCH  67  68
ENDBRANCH  48  67
ENDBRANCH  44  48
ENDBRANCH  43  46
BRANCH  43  71
ATOM     71  CB  ASN A   4      -1.349  24.040  33.143  0.00  0.00    +0.114 C 
BRANCH  71  72
ATOM     72  CG  ASN A   4       0.141  23.951  33.231  0.00  0.00    +0.222 C 
ATOM     73  OD1 ASN A   4       0.700  23.027  33.806  0.00  0.00    -0.275 OA
ATOM     74  ND2 ASN A   4       0.853  24.886  32.658  0.00  0.00    -0.329 N 
ATOM     75 HD21 ASN A   4       1.892  24.843  32.692  0.00  0.00    +0.145 HD
ATOM     76 HD22 ASN A   4       0.381  25.673  32.168  0.00  0.00    +0.145 HD
ENDBRANCH  71  72
ENDBRANCH  43  71
ENDBRANCH   1  43
TORSDOF 29
REMARK  Name = ../refined-set-2016/1gnm/1gnm_pocket.pdb
REMARK  215 active torsions:
REMARK  status: ('A' for Active; 'I' for Inactive)
REMARK    1  A    between atoms: _1  and  _3
REMARK    2  A    between atoms: _3  and  _4
REMARK    3  A    between atoms: _3  and  _6
REMARK    4  A    between atoms: _6  and  _7
REMARK    5  A    between atoms: _7  and  _8
REMARK    6  A    between atoms: _8  and  _9
REMARK    7  A    between atoms: _18  and  _20
REMARK    8  A    between atoms: _20  and  _21
REMARK    9  A    between atoms: _20  and  _23
REMARK   10  A    between atoms: _23  and  _24
REMARK   11  A    between atoms: _27  and  _29
REMARK   12  A    between atoms: _29  and  _30
REMARK   13  A    between atoms: _29  and  _32
REMARK   14  A    between atoms: _32  and  _33
REMARK   15  A    between atoms: _36  and  _38
REMARK   16  A    between atoms: _38  and  _39
REMARK   17  A    between atoms: _38  and  _41
REMARK   18  A    between atoms: _41  and  _42
REMARK   19  A    between atoms: _45  and  _47
REMARK   20  A    between atoms: _47  and  _48
REMARK   21  A    between atoms: _47  and  _50
REMARK   22  A    between atoms: _50  and  _51
REMARK   23  A    between atoms: _54  and  _56
REMARK   24  A    between atoms: _56  and  _57
REMARK   25  A    between atoms: _56  and  _59
REMARK   26  A    between atoms: _59  and  _60
REMARK   27  A    between atoms: _63  and  _65
REMARK   28  A    between atoms: _65  and  _66
REMARK   29  A    between atoms: _68  and  _70
REMARK   30  A    between atoms: _70  and  _71
REMARK   31  A    between atoms: _74  and  _76
REMARK   32  A    between atoms: _76  and  _77
REMARK   33  A    between atoms: _76  and  _79
REMARK   34  A    between atoms: _79  and  _80
REMARK   35  A    between atoms: _83  and  _85
REMARK   36  A    between atoms: _85  and  _86
REMARK   37  A    between atoms: _85  and  _88
REMARK   38  A    between atoms: _88  and  _89
REMARK   39  A    between atoms: _92  and  _94
REMARK   40  A    between atoms: _94  and  _95
REMARK   41  A    between atoms: _94  and  _97
REMARK   42  A    between atoms: _97  and  _98
REMARK   43  A    between atoms: _101  and  _103
REMARK   44  A    between atoms: _103  and  _104
REMARK   45  A    between atoms: _103  and  _106
REMARK   46  A    between atoms: _109  and  _111
REMARK   47  A    between atoms: _111  and  _112
REMARK   48  A    between atoms: _111  and  _114
REMARK   49  A    between atoms: _114  and  _115
REMARK   50  A    between atoms: _118  and  _120
REMARK   51  A    between atoms: _120  and  _121
REMARK   52  A    between atoms: _123  and  _125
REMARK   53  A    between atoms: _125  and  _126
REMARK   54  A    between atoms: _128  and  _130
REMARK   55  A    between atoms: _130  and  _131
REMARK   56  A    between atoms: _130  and  _133
REMARK   57  A    between atoms: _133  and  _134
REMARK   58  A    between atoms: _137  and  _139
REMARK   59  A    between atoms: _139  and  _140
REMARK   60  A    between atoms: _142  and  _144
REMARK   61  A    between atoms: _144  and  _145
REMARK   62  A    between atoms: _147  and  _149
REMARK   63  A    between atoms: _149  and  _150
REMARK   64  A    between atoms: _149  and  _152
REMARK   65  A    between atoms: _152  and  _153
REMARK   66  A    between atoms: _156  and  _158
REMARK   67  A    between atoms: _158  and  _159
REMARK   68  A    between atoms: _158  and  _161
REMARK   69  A    between atoms: _161  and  _162
REMARK   70  A    between atoms: _165  and  _167
REMARK   71  A    between atoms: _167  and  _168
REMARK   72  A    between atoms: _167  and  _170
REMARK   73  A    between atoms: _170  and  _171
REMARK   74  A    between atoms: _175  and  _176
REMARK   75  A    between atoms: _181  and  _183
REMARK   76  A    between atoms: _183  and  _184
REMARK   77  A    between atoms: _183  and  _186
REMARK   78  A    between atoms: _186  and  _187
REMARK   79  A    between atoms: _190  and  _192
REMARK   80  A    between atoms: _192  and  _193
REMARK   81  A    between atoms: _192  and  _195
REMARK   82  A    between atoms: _195  and  _196
REMARK   83  A    between atoms: _201  and  _203
REMARK   84  A    between atoms: _203  and  _204
REMARK   85  A    between atoms: _203  and  _206
REMARK   86  A    between atoms: _206  and  _207
REMARK   87  A    between atoms: _210  and  _212
REMARK   88  A    between atoms: _212  and  _213
REMARK   89  A    between atoms: _212  and  _215
REMARK   90  A    between atoms: _215  and  _216
REMARK   91  A    between atoms: _219  and  _221
REMARK   92  A    between atoms: _221  and  _222
REMARK   93  A    between atoms: _224  and  _226
REMARK   94  A    between atoms: _226  and  _227
REMARK   95  A    between atoms: _226  and  _229
REMARK   96  A    between atoms: _229  and  _230
REMARK   97  A    between atoms: _230  and  _231
REMARK   98  A    between atoms: _231  and  _232
REMARK   99  A    between atoms: _241  and  _243
REMARK  100  A    between atoms: _243  and  _244
REMARK  101  A    between atoms: _243  and  _246
REMARK  102  A    between atoms: _246  and  _247
REMARK  103  A    between atoms: _247  and  _248
REMARK  104  A    between atoms: _248  and  _249
REMARK  105  A    between atoms: _258  and  _260
REMARK  106  A    between atoms: _260  and  _261
REMARK  107  A    between atoms: _260  and  _263
REMARK  108  A    between atoms: _263  and  _264
REMARK  109  A    between atoms: _267  and  _269
REMARK  110  A    between atoms: _269  and  _270
REMARK  111  A    between atoms: _269  and  _272
REMARK  112  A    between atoms: _272  and  _273
REMARK  113  A    between atoms: _276  and  _278
REMARK  114  A    between atoms: _278  and  _279
REMARK  115  A    between atoms: _278  and  _281
REMARK  116  A    between atoms: _281  and  _282
REMARK  117  A    between atoms: _285  and  _287
REMARK  118  A    between atoms: _287  and  _288
REMARK  119  A    between atoms: _287  and  _290
REMARK  120  A    between atoms: _290  and  _291
REMARK  121  A    between atoms: _294  and  _296
REMARK  122  A    between atoms: _296  and  _297
REMARK  123  A    between atoms: _299  and  _301
REMARK  124  A    between atoms: _301  and  _302
REMARK  125  A    between atoms: _305  and  _307
REMARK  126  A    between atoms: _307  and  _308
REMARK  127  A    between atoms: _307  and  _310
REMARK  128  A    between atoms: _310  and  _311
REMARK  129  A    between atoms: _314  and  _316
REMARK  130  A    between atoms: _316  and  _317
REMARK  131  A    between atoms: _316  and  _319
REMARK  132  A    between atoms: _319  and  _320
REMARK  133  A    between atoms: _323  and  _325
REMARK  134  A    between atoms: _325  and  _326
REMARK  135  A    between atoms: _325  and  _328
REMARK  136  A    between atoms: _328  and  _329
REMARK  137  A    between atoms: _332  and  _334
REMARK  138  A    between atoms: _334  and  _335
REMARK  139  A    between atoms: _334  and  _337
REMARK  140  A    between atoms: _340  and  _342
REMARK  141  A    between atoms: _342  and  _343
REMARK  142  A    between atoms: _342  and  _345
REMARK  143  A    between atoms: _345  and  _346
REMARK  144  A    between atoms: _346  and  _347
REMARK  145  A    between atoms: _347  and  _348
REMARK  146  A    between atoms: _348  and  _349
REMARK  147  A    between atoms: _353  and  _355
REMARK  148  A    between atoms: _355  and  _356
REMARK  149  A    between atoms: _355  and  _358
REMARK  150  A    between atoms: _358  and  _359
REMARK  151  A    between atoms: _359  and  _360
REMARK  152  A    between atoms: _362  and  _364
REMARK  153  A    between atoms: _364  and  _365
REMARK  154  A    between atoms: _364  and  _367
REMARK  155  A    between atoms: _367  and  _368
REMARK  156  A    between atoms: _371  and  _373
REMARK  157  A    between atoms: _373  and  _374
REMARK  158  A    between atoms: _376  and  _378
REMARK  159  A    between atoms: _378  and  _379
REMARK  160  A    between atoms: _381  and  _383
REMARK  161  A    between atoms: _383  and  _384
REMARK  162  A    between atoms: _383  and  _386
REMARK  163  A    between atoms: _386  and  _387
REMARK  164  A    between atoms: _390  and  _392
REMARK  165  A    between atoms: _392  and  _393
REMARK  166  A    between atoms: _395  and  _397
REMARK  167  A    between atoms: _397  and  _398
REMARK  168  A    between atoms: _400  and  _402
REMARK  169  A    between atoms: _402  and  _403
REMARK  170  A    between atoms: _402  and  _405
REMARK  171  A    between atoms: _405  and  _406
REMARK  172  A    between atoms: _412  and  _414
REMARK  173  A    between atoms: _414  and  _415
REMARK  174  A    between atoms: _414  and  _417
REMARK  175  A    between atoms: _417  and  _418
REMARK  176  A    between atoms: _421  and  _423
REMARK  177  A    between atoms: _423  and  _424
REMARK  178  A    between atoms: _423  and  _426
REMARK  179  A    between atoms: _429  and  _431
REMARK  180  A    between atoms: _431  and  _432
REMARK  181  A    between atoms: _431  and  _434
REMARK  182  A    between atoms: _434  and  _435
REMARK  183  A    between atoms: _438  and  _440
REMARK  184  A    between atoms: _440  and  _441
REMARK  185  A    between atoms: _440  and  _443
REMARK  186  A    between atoms: _443  and  _444
REMARK  187  A    between atoms: _448  and  _449
REMARK  188  A    between atoms: _454  and  _456
REMARK  189  A    between atoms: _456  and  _457
REMARK  190  A    between atoms: _456  and  _459
REMARK  191  A    between atoms: _459  and  _460
REMARK  192  A    between atoms: _463  and  _465
REMARK  193  A    between atoms: _465  and  _466
REMARK  194  A    between atoms: _465  and  _468
REMARK  195  A    between atoms: _468  and  _469
REMARK  196  A    between atoms: _474  and  _476
REMARK  197  A    between atoms: _476  and  _477
REMARK  198  A    between atoms: _476  and  _479
REMARK  199  A    between atoms: _479  and  _480
REMARK  200  A    between atoms: _483  and  _485
REMARK  201  A    between atoms: _485  and  _486
REMARK  202  A    between atoms: _485  and  _488
REMARK  203  A    between atoms: _488  and  _489
REMARK  204  A    between atoms: _492  and  _494
REMARK  205  A    between atoms: _494  and  _495
REMARK  206  A    between atoms: _497  and  _499
REMARK  207  A    between atoms: _499  and  _500
REMARK  208  A    between atoms: _499  and  _502
REMARK  209  A    between atoms: _502  and  _503
REMARK  210  A    between atoms: _503  and  _504
REMARK  211  A    between atoms: _504  and  _505
REMARK  212  A    between atoms: _514  and  _516
REMARK  213  A    between atoms: _516  and  _517
REMARK  214  A    between atoms: _516  and  _519
REMARK  215  A    between atoms: _519  and  _520
REMARK                            x       y       z     vdW  Elec       q    Type
REMARK                         _______ _______ _______ _____ _____    ______ ____
ROOT
ATOM      1  NE  ARG A   1     -18.212  15.360  33.406  0.00  0.00    -0.265 N 
ATOM      2  CZ  ARG A   1     -17.918  14.607  34.398  0.00  0.00    +0.342 C 
ATOM      3  NH2 ARG A   1     -18.296  14.911  35.649  0.00  0.00    -0.292 N 
ATOM      4 HH21 ARG A   1     -18.043  14.280  36.436  0.00  0.00    +0.255 HD
ATOM      5 HH22 ARG A   1     -18.842  15.777  35.831  0.00  0.00    +0.255 HD
ATOM      6  NH1 ARG A   1     -17.164  13.496  34.450  0.00  0.00    -0.292 N 
ATOM      7 HH11 ARG A   1     -17.028  13.001  35.355  0.00  0.00    +0.255 HD
ATOM      8 HH12 ARG A   1     -16.716  13.131  33.585  0.00  0.00    +0.255 HD
ATOM      9  HE  ARG A   1     -17.618  15.242  32.560  0.00  0.00    +0.259 HD
ENDROOT
BRANCH   1  10
ATOM     10  CD  ARG A   1     -19.251  16.345  33.304  0.00  0.00    +0.174 C 
BRANCH  10  11
ATOM     11  CG  ARG A   1     -19.356  17.564  32.469  0.00  0.00    +0.045 C 
BRANCH  11  12
ATOM     12  CB  ARG A   1     -20.780  18.074  32.261  0.00  0.00    +0.029 C 
BRANCH  12  13
ATOM     13  CA  ARG A   1     -21.006  19.515  32.718  0.00  0.00    +0.133 C 
BRANCH  13  14
ATOM     14  N   ARG A   1     -21.626  19.586  34.058  0.00  0.00    -0.239 NA
ATOM     15  H   ARG A   1     -21.784  18.713  34.601  0.00  0.00    +0.142 HD
ENDBRANCH  13  14
BRANCH  13  16
ATOM     16  C   ARG A   1     -21.850  20.210  31.649  0.00  0.00    +0.224 C 
ATOM     17  O   ARG A   1     -23.056  19.968  31.564  0.00  0.00    -0.287 OA
ENDBRANCH  13  16
ENDBRANCH  12  13
ENDBRANCH  11  12
ENDBRANCH  10  11
ENDBRANCH   1  10
TORSDOF 6
REMARK  Name = ../refined-set-2016/1gnm/1gnm_pocket.pdb
REMARK  215 active torsions:
REMARK  status: ('A' for Active; 'I' for Inactive)
REMARK    1  A    between atoms: _1  and  _3
REMARK    2  A    between atoms: _3  and  _4
REMARK    3  A    between atoms: _3  and  _6
REMARK    4  A    between atoms: _6  and  _7
REMARK    5  A    between atoms: _7  and  _8
REMARK    6  A    between atoms: _8  and  _9
REMARK    7  A    between atoms: _18  and  _20
REMARK    8  A    between atoms: _20  and  _21
REMARK    9  A    between atoms: _20  and  _23
REMARK   10  A    between atoms: _23  and  _24
REMARK   11  A    between atoms: _27  and  _29
REMARK   12  A    between atoms: _29  and  _30
REMARK   13  A    between atoms: _29  and  _32
REMARK   14  A    between atoms: _32  and  _33
REMARK   15  A    between atoms: _36  and  _38
REMARK   16  A    between atoms: _38  and  _39
REMARK   17  A    between atoms: _38  and  _41
REMARK   18  A    between atoms: _41  and  _42
REMARK   19  A    between atoms: _45  and  _47
REMARK   20  A    between atoms: _47  and  _48
REMARK   21  A    between atoms: _47  and  _50
REMARK   22  A    between atoms: _50  and  _51
REMARK   23  A    between atoms: _54  and  _56
REMARK   24  A    between atoms: _56  and  _57
REMARK   25  A    between atoms: _56  and  _59
REMARK   26  A    between atoms: _59  and  _60
REMARK   27  A    between atoms: _63  and  _65
REMARK   28  A    between atoms: _65  and  _66
REMARK   29  A    between atoms: _68  and  _70
REMARK   30  A    between atoms: _70  and  _71
REMARK   31  A    between atoms: _74  and  _76
REMARK   32  A    between atoms: _76  and  _77
REMARK   33  A    between atoms: _76  and  _79
REMARK   34  A    between atoms: _79  and  _80
REMARK   35  A    between atoms: _83  and  _85
REMARK   36  A    between atoms: _85  and  _86
REMARK   37  A    between atoms: _85  and  _88
REMARK   38  A    between atoms: _88  and  _89
REMARK   39  A    between atoms: _92  and  _94
REMARK   40  A    between atoms: _94  and  _95
REMARK   41  A    between atoms: _94  and  _97
REMARK   42  A    between atoms: _97  and  _98
REMARK   43  A    between atoms: _101  and  _103
REMARK   44  A    between atoms: _103  and  _104
REMARK   45  A    between atoms: _103  and  _106
REMARK   46  A    between atoms: _109  and  _111
REMARK   47  A    between atoms: _111  and  _112
REMARK   48  A    between atoms: _111  and  _114
REMARK   49  A    between atoms: _114  and  _115
REMARK   50  A    between atoms: _118  and  _120
REMARK   51  A    between atoms: _120  and  _121
REMARK   52  A    between atoms: _123  and  _125
REMARK   53  A    between atoms: _125  and  _126
REMARK   54  A    between atoms: _128  and  _130
REMARK   55  A    between atoms: _130  and  _131
REMARK   56  A    between atoms: _130  and  _133
REMARK   57  A    between atoms: _133  and  _134
REMARK   58  A    between atoms: _137  and  _139
REMARK   59  A    between atoms: _139  and  _140
REMARK   60  A    between atoms: _142  and  _144
REMARK   61  A    between atoms: _144  and  _145
REMARK   62  A    between atoms: _147  and  _149
REMARK   63  A    between atoms: _149  and  _150
REMARK   64  A    between atoms: _149  and  _152
REMARK   65  A    between atoms: _152  and  _153
REMARK   66  A    between atoms: _156  and  _158
REMARK   67  A    between atoms: _158  and  _159
REMARK   68  A    between atoms: _158  and  _161
REMARK   69  A    between atoms: _161  and  _162
REMARK   70  A    between atoms: _165  and  _167
REMARK   71  A    between atoms: _167  and  _168
REMARK   72  A    between atoms: _167  and  _170
REMARK   73  A    between atoms: _170  and  _171
REMARK   74  A    between atoms: _175  and  _176
REMARK   75  A    between atoms: _181  and  _183
REMARK   76  A    between atoms: _183  and  _184
REMARK   77  A    between atoms: _183  and  _186
REMARK   78  A    between atoms: _186  and  _187
REMARK   79  A    between atoms: _190  and  _192
REMARK   80  A    between atoms: _192  and  _193
REMARK   81  A    between atoms: _192  and  _195
REMARK   82  A    between atoms: _195  and  _196
REMARK   83  A    between atoms: _201  and  _203
REMARK   84  A    between atoms: _203  and  _204
REMARK   85  A    between atoms: _203  and  _206
REMARK   86  A    between atoms: _206  and  _207
REMARK   87  A    between atoms: _210  and  _212
REMARK   88  A    between atoms: _212  and  _213
REMARK   89  A    between atoms: _212  and  _215
REMARK   90  A    between atoms: _215  and  _216
REMARK   91  A    between atoms: _219  and  _221
REMARK   92  A    between atoms: _221  and  _222
REMARK   93  A    between atoms: _224  and  _226
REMARK   94  A    between atoms: _226  and  _227
REMARK   95  A    between atoms: _226  and  _229
REMARK   96  A    between atoms: _229  and  _230
REMARK   97  A    between atoms: _230  and  _231
REMARK   98  A    between atoms: _231  and  _232
REMARK   99  A    between atoms: _241  and  _243
REMARK  100  A    between atoms: _243  and  _244
REMARK  101  A    between atoms: _243  and  _246
REMARK  102  A    between atoms: _246  and  _247
REMARK  103  A    between atoms: _247  and  _248
REMARK  104  A    between atoms: _248  and  _249
REMARK  105  A    between atoms: _258  and  _260
REMARK  106  A    between atoms: _260  and  _261
REMARK  107  A    between atoms: _260  and  _263
REMARK  108  A    between atoms: _263  and  _264
REMARK  109  A    between atoms: _267  and  _269
REMARK  110  A    between atoms: _269  and  _270
REMARK  111  A    between atoms: _269  and  _272
REMARK  112  A    between atoms: _272  and  _273
REMARK  113  A    between atoms: _276  and  _278
REMARK  114  A    between atoms: _278  and  _279
REMARK  115  A    between atoms: _278  and  _281
REMARK  116  A    between atoms: _281  and  _282
REMARK  117  A    between atoms: _285  and  _287
REMARK  118  A    between atoms: _287  and  _288
REMARK  119  A    between atoms: _287  and  _290
REMARK  120  A    between atoms: _290  and  _291
REMARK  121  A    between atoms: _294  and  _296
REMARK  122  A    between atoms: _296  and  _297
REMARK  123  A    between atoms: _299  and  _301
REMARK  124  A    between atoms: _301  and  _302
REMARK  125  A    between atoms: _305  and  _307
REMARK  126  A    between atoms: _307  and  _308
REMARK  127  A    between atoms: _307  and  _310
REMARK  128  A    between atoms: _310  and  _311
REMARK  129  A    between atoms: _314  and  _316
REMARK  130  A    between atoms: _316  and  _317
REMARK  131  A    between atoms: _316  and  _319
REMARK  132  A    between atoms: _319  and  _320
REMARK  133  A    between atoms: _323  and  _325
REMARK  134  A    between atoms: _325  and  _326
REMARK  135  A    between atoms: _325  and  _328
REMARK  136  A    between atoms: _328  and  _329
REMARK  137  A    between atoms: _332  and  _334
REMARK  138  A    between atoms: _334  and  _335
REMARK  139  A    between atoms: _334  and  _337
REMARK  140  A    between atoms: _340  and  _342
REMARK  141  A    between atoms: _342  and  _343
REMARK  142  A    between atoms: _342  and  _345
REMARK  143  A    between atoms: _345  and  _346
REMARK  144  A    between atoms: _346  and  _347
REMARK  145  A    between atoms: _347  and  _348
REMARK  146  A    between atoms: _348  and  _349
REMARK  147  A    between atoms: _353  and  _355
REMARK  148  A    between atoms: _355  and  _356
REMARK  149  A    between atoms: _355  and  _358
REMARK  150  A    between atoms: _358  and  _359
REMARK  151  A    between atoms: _359  and  _360
REMARK  152  A    between atoms: _362  and  _364
REMARK  153  A    between atoms: _364  and  _365
REMARK  154  A    between atoms: _364  and  _367
REMARK  155  A    between atoms: _367  and  _368
REMARK  156  A    between atoms: _371  and  _373
REMARK  157  A    between atoms: _373  and  _374
REMARK  158  A    between atoms: _376  and  _378
REMARK  159  A    between atoms: _378  and  _379
REMARK  160  A    between atoms: _381  and  _383
REMARK  161  A    between atoms: _383  and  _384
REMARK  162  A    between atoms: _383  and  _386
REMARK  163  A    between atoms: _386  and  _387
REMARK  164  A    between atoms: _390  and  _392
REMARK  165  A    between atoms: _392  and  _393
REMARK  166  A    between atoms: _395  and  _397
REMARK  167  A    between atoms: _397  and  _398
REMARK  168  A    between atoms: _400  and  _402
REMARK  169  A    between atoms: _402  and  _403
REMARK  170  A    between atoms: _402  and  _405
REMARK  171  A    between atoms: _405  and  _406
REMARK  172  A    between atoms: _412  and  _414
REMARK  173  A    between atoms: _414  and  _415
REMARK  174  A    between atoms: _414  and  _417
REMARK  175  A    between atoms: _417  and  _418
REMARK  176  A    between atoms: _421  and  _423
REMARK  177  A    between atoms: _423  and  _424
REMARK  178  A    between atoms: _423  and  _426
REMARK  179  A    between atoms: _429  and  _431
REMARK  180  A    between atoms: _431  and  _432
REMARK  181  A    between atoms: _431  and  _434
REMARK  182  A    between atoms: _434  and  _435
REMARK  183  A    between atoms: _438  and  _440
REMARK  184  A    between atoms: _440  and  _441
REMARK  185  A    between atoms: _440  and  _443
REMARK  186  A    between atoms: _443  and  _444
REMARK  187  A    between atoms: _448  and  _449
REMARK  188  A    between atoms: _454  and  _456
REMARK  189  A    between atoms: _456  and  _457
REMARK  190  A    between atoms: _456  and  _459
REMARK  191  A    between atoms: _459  and  _460
REMARK  192  A    between atoms: _463  and  _465
REMARK  193  A    between atoms: _465  and  _466
REMARK  194  A    between atoms: _465  and  _468
REMARK  195  A    between atoms: _468  and  _469
REMARK  196  A    between atoms: _474  and  _476
REMARK  197  A    between atoms: _476  and  _477
REMARK  198  A    between atoms: _476  and  _479
REMARK  199  A    between atoms: _479  and  _480
REMARK  200  A    between atoms: _483  and  _485
REMARK  201  A    between atoms: _485  and  _486
REMARK  202  A    between atoms: _485  and  _488
REMARK  203  A    between atoms: _488  and  _489
REMARK  204  A    between atoms: _492  and  _494
REMARK  205  A    between atoms: _494  and  _495
REMARK  206  A    between atoms: _497  and  _499
REMARK  207  A    between atoms: _499  and  _500
REMARK  208  A    between atoms: _499  and  _502
REMARK  209  A    between atoms: _502  and  _503
REMARK  210  A    between atoms: _503  and  _504
REMARK  211  A    between atoms: _504  and  _505
REMARK  212  A    between atoms: _514  and  _516
REMARK  213  A    between atoms: _516  and  _517
REMARK  214  A    between atoms: _516  and  _519
REMARK  215  A    between atoms: _519  and  _520
REMARK                            x       y       z     vdW  Elec       q    Type
REMARK                         _______ _______ _______ _____ _____    ______ ____
ROOT
ATOM      1  C   GLY A   5      -9.551  21.326  24.738  0.00  0.00    +0.243 C 
ATOM      2  O   GLY A   5      -8.490  20.746  24.614  0.00  0.00    -0.273 OA
ATOM      3  N   ALA A   6     -10.547  21.095  23.905  0.00  0.00    -0.297 N 
ATOM      4  H   ALA A   6     -11.452  21.585  24.056  0.00  0.00    +0.150 HD
ENDROOT
BRANCH   3   5
ATOM      5  CA  ALA A   6     -10.422  20.165  22.767  0.00  0.00    +0.149 C 
ATOM      6  CB  ALA A   6     -11.621  19.212  22.819  0.00  0.00    +0.031 C 
BRANCH   5   7
ATOM      7  C   ALA A   6     -10.337  20.997  21.506  0.00  0.00    +0.241 C 
ATOM      8  O   ALA A   6     -11.202  21.807  21.194  0.00  0.00    -0.273 OA
ATOM      9  N   ASP A   7      -9.263  20.934  20.746  0.00  0.00    -0.297 N 
ATOM     10  H   ASP A   7      -8.484  20.345  21.104  0.00  0.00    +0.150 HD
BRANCH   9  11
ATOM     11  CA  ASP A   7      -9.034  21.583  19.475  0.00  0.00    +0.160 C 
BRANCH  11  12
ATOM     12  C   ASP A   7     -10.005  21.088  18.419  0.00  0.00    +0.241 C 
ATOM     13  N   ASP A   8     -10.285  19.794  18.485  0.00  0.00    -0.297 N 
ATOM     14  H   ASP A   8      -9.796  19.306  19.263  0.00  0.00    +0.150 HD
ATOM     15  O   ASP A   7     -10.429  21.884  17.624  0.00  0.00    -0.273 OA
BRANCH  13  16
ATOM     16  CA  ASP A   8     -11.123  18.925  17.706  0.00  0.00    +0.160 C 
BRANCH  16  17
ATOM     17  C   ASP A   8     -12.419  18.349  18.281  0.00  0.00    +0.241 C 
ATOM     18  O   ASP A   8     -12.609  18.331  19.490  0.00  0.00    -0.273 OA
ATOM     19  N   THR A   9     -13.298  17.829  17.444  0.00  0.00    -0.295 N 
ATOM     20  H   THR A   9     -13.076  17.861  16.428  0.00  0.00    +0.150 HD
BRANCH  19  21
ATOM     21  CA  THR A   9     -14.559  17.212  17.844  0.00  0.00    +0.176 C 
BRANCH  21  22
ATOM     22  C   THR A   9     -14.367  15.717  17.686  0.00  0.00    +0.243 C 
ATOM     23  N   VAL A  10     -14.556  15.005  18.789  0.00  0.00    -0.298 N 
ATOM     24  H   VAL A  10     -14.883  15.514  19.635  0.00  0.00    +0.150 HD
ATOM     25  O   THR A   9     -13.993  15.243  16.621  0.00  0.00    -0.273 OA
BRANCH  23  26
ATOM     26  CA  VAL A  10     -14.344  13.573  18.912  0.00  0.00    +0.137 C 
BRANCH  26  27
ATOM     27  CB  VAL A  10     -13.098  13.187  19.720  0.00  0.00    +0.026 C 
ATOM     28  CG2 VAL A  10     -13.277  13.405  21.193  0.00  0.00    +0.002 C 
ATOM     29  CG1 VAL A  10     -12.828  11.687  19.628  0.00  0.00    +0.002 C 
ENDBRANCH  26  27
BRANCH  26  30
ATOM     30  C   VAL A  10     -15.632  12.956  19.471  0.00  0.00    +0.227 C 
ATOM     31  O   VAL A  10     -16.122  13.212  20.558  0.00  0.00    -0.286 OA
ENDBRANCH  26  30
ENDBRANCH  23  26
ENDBRANCH  21  22
BRANCH  21  32
ATOM     32  CB  THR A   9     -15.663  17.776  16.959  0.00  0.00    +0.137 C 
ATOM     33  CG2 THR A   9     -17.033  17.219  17.171  0.00  0.00    +0.034 C 
BRANCH  32  34
ATOM     34  OG1 THR A   9     -15.709  19.187  17.253  0.00  0.00    -0.382 OA
ATOM     35  HG1 THR A   9     -14.832  19.595  17.043  0.00  0.00    +0.210 HD
ENDBRANCH  32  34
ENDBRANCH  21  32
ENDBRANCH  19  21
ENDBRANCH  16  17
BRANCH  16  36
ATOM     36  CB  ASP A   8     -10.400  17.542  17.525  0.00  0.00    +0.143 C 
BRANCH  36  37
ATOM     37  CG  ASP A   8      -9.176  17.913  16.696  0.00  0.00    +0.367 C 
ATOM     38  OD2 ASP A   8      -8.028  17.742  17.144  0.00  0.00    -0.246 OA
ATOM     39  OD1 ASP A   8      -9.584  18.450  15.649  0.00  0.00    -0.246 OA
ENDBRANCH  36  37
ENDBRANCH  16  36
ENDBRANCH  13  16
ENDBRANCH  11  12
BRANCH  11  40
ATOM     40  CB  ASP A   7      -7.671  21.191  18.870  0.00  0.00    +0.143 C 
BRANCH  40  41
ATOM     41  CG  ASP A   7      -6.561  21.718  19.780  0.00  0.00    +0.367 C 
ATOM     42  OD2 ASP A   7      -6.774  22.790  20.412  0.00  0.00    -0.246 OA
ATOM     43  OD1 ASP A   7      -5.529  21.017  19.806  0.00  0.00    -0.246 OA
ENDBRANCH  40  41
ENDBRANCH  11  40
ENDBRANCH   9  11
ENDBRANCH   5   7
ENDBRANCH   3   5
BRANCH   1  44
ATOM     44  CA  GLY A   5      -9.756  22.310  25.868  0.00  0.00    +0.176 C 
BRANCH  44  46
ATOM     45  C   THR A   4     -11.453  23.938  25.165  0.00  0.00    +0.243 C 
ATOM     46  N   GLY A   5     -11.111  22.842  25.818  0.00  0.00    -0.295 N 
ATOM     47  H   GLY A   5     -11.856  22.326  26.329  0.00  0.00    +0.150 HD
ATOM     48  O   THR A   4     -10.535  24.591  24.603  0.00  0.00    -0.273 OA
BRANCH  45  49
ATOM     49  CA  THR A   4     -12.898  24.390  25.207  0.00  0.00    +0.176 C 
BRANCH  49  51
ATOM     50  C   ASP A   3     -14.036  22.235  24.982  0.00  0.00    +0.241 C 
ATOM     51  N   THR A   4     -13.840  23.381  25.668  0.00  0.00    -0.295 N 
ATOM     52  H   THR A   4     -14.374  23.546  26.545  0.00  0.00    +0.150 HD
ATOM     53  O   ASP A   3     -13.363  22.019  23.964  0.00  0.00    -0.273 OA
BRANCH  50  54
ATOM     54  CA  ASP A   3     -15.024  21.250  25.553  0.00  0.00    +0.160 C 
BRANCH  54  57
ATOM     55  C   LEU A   2     -17.390  21.712  25.722  0.00  0.00    +0.241 C 
ATOM     56  O   LEU A   2     -17.315  22.079  26.893  0.00  0.00    -0.273 OA
ATOM     57  N   ASP A   3     -16.351  21.384  24.987  0.00  0.00    -0.297 N 
ATOM     58  H   ASP A   3     -16.485  21.216  23.970  0.00  0.00    +0.150 HD
BRANCH  55  59
ATOM     59  CA  LEU A   2     -18.770  21.670  25.052  0.00  0.00    +0.149 C 
BRANCH  59  61
ATOM     60  C   LEU A   1     -19.277  19.329  25.307  0.00  0.00    +0.238 C 
ATOM     61  N   LEU A   2     -19.509  20.582  25.680  0.00  0.00    -0.297 N 
ATOM     62  H   LEU A   2     -20.214  20.786  26.416  0.00  0.00    +0.150 HD
ATOM     63  O   LEU A   1     -18.494  19.042  24.411  0.00  0.00    -0.274 OA
BRANCH  60  64
ATOM     64  CA  LEU A   1     -19.944  18.197  26.058  0.00  0.00    +0.145 C 
BRANCH  64  65
ATOM     65  N   LEU A   1     -20.441  17.171  25.171  0.00  0.00    -0.238 NA
ATOM     66  H   LEU A   1     -19.814  16.380  24.920  0.00  0.00    +0.142 HD
ENDBRANCH  64  65
BRANCH  64  67
ATOM     67  CB  LEU A   1     -18.737  17.692  26.844  0.00  0.00    +0.026 C 
BRANCH  67  68
ATOM     68  CG  LEU A   1     -18.695  17.442  28.351  0.00  0.00    +0.002 C 
ATOM     69  CD2 LEU A   1     -19.017  18.682  29.147  0.00  0.00    +0.000 C 
ATOM     70  CD1 LEU A   1     -17.207  17.247  28.730  0.00  0.00    +0.000 C 
ENDBRANCH  67  68
ENDBRANCH  64  67
ENDBRANCH  60  64
ENDBRANCH  59  61
BRANCH  59  71
ATOM     71  CB  LEU A   2     -19.427  23.010  25.219  0.00  0.00    +0.029 C 
BRANCH  71  72
ATOM     72  CG  LEU A   2     -20.587  23.415  24.323  0.00  0.00    +0.002 C 
ATOM     73  CD2 LEU A   2     -21.727  23.915  25.211  0.00  0.00    +0.000 C 
ATOM     74  CD1 LEU A   2     -21.149  22.274  23.504  0.00  0.00    +0.000 C 
ENDBRANCH  71  72
ENDBRANCH  59  71
ENDBRANCH  55  59
ENDBRANCH  54  57
BRANCH  54  75
ATOM     75  CB  ASP A   3     -14.576  19.808  25.293  0.00  0.00    +0.143 C 
BRANCH  75  76
ATOM     76  CG  ASP A   3     -13.306  19.438  25.978  0.00  0.00    +0.367 C 
ATOM     77  OD2 ASP A   3     -12.720  20.311  26.651  0.00  0.00    -0.246 OA
ATOM     78  OD1 ASP A   3     -12.703  18.370  25.950  0.00  0.00    -0.246 OA
ENDBRANCH  75  76
ENDBRANCH  54  75
ENDBRANCH  50  54
ENDBRANCH  49  51
BRANCH  49  79
ATOM     79  CB  THR A   4     -13.022  25.635  26.119  0.00  0.00    +0.137 C 
ATOM     80  CG2 THR A   4     -14.423  26.231  26.137  0.00  0.00    +0.034 C 
BRANCH  79  81
ATOM     81  OG1 THR A   4     -12.783  25.308  27.494  0.00  0.00    -0.382 OA
ATOM     82  HG1 THR A   4     -11.869  24.939  27.590  0.00  0.00    +0.210 HD
ENDBRANCH  79  81
ENDBRANCH  49  79
ENDBRANCH  45  49
ENDBRANCH  44  46
ENDBRANCH   1  44
TORSDOF 35
REMARK  Name = ../refined-set-2016/1gnm/1gnm_pocket.pdb
REMARK  215 active torsions:
REMARK  status: ('A' for Active; 'I' for Inactive)
REMARK    1  A    between atoms: _1  and  _3
REMARK    2  A    between atoms: _3  and  _4
REMARK    3  A    between atoms: _3  and  _6
REMARK    4  A    between atoms: _6  and  _7
REMARK    5  A    between atoms: _7  and  _8
REMARK    6  A    between atoms: _8  and  _9
REMARK    7  A    between atoms: _18  and  _20
REMARK    8  A    between atoms: _20  and  _21
REMARK    9  A    between atoms: _20  and  _23
REMARK   10  A    between atoms: _23  and  _24
REMARK   11  A    between atoms: _27  and  _29
REMARK   12  A    between atoms: _29  and  _30
REMARK   13  A    between atoms: _29  and  _32
REMARK   14  A    between atoms: _32  and  _33
REMARK   15  A    between atoms: _36  and  _38
REMARK   16  A    between atoms: _38  and  _39
REMARK   17  A    between atoms: _38  and  _41
REMARK   18  A    between atoms: _41  and  _42
REMARK   19  A    between atoms: _45  and  _47
REMARK   20  A    between atoms: _47  and  _48
REMARK   21  A    between atoms: _47  and  _50
REMARK   22  A    between atoms: _50  and  _51
REMARK   23  A    between atoms: _54  and  _56
REMARK   24  A    between atoms: _56  and  _57
REMARK   25  A    between atoms: _56  and  _59
REMARK   26  A    between atoms: _59  and  _60
REMARK   27  A    between atoms: _63  and  _65
REMARK   28  A    between atoms: _65  and  _66
REMARK   29  A    between atoms: _68  and  _70
REMARK   30  A    between atoms: _70  and  _71
REMARK   31  A    between atoms: _74  and  _76
REMARK   32  A    between atoms: _76  and  _77
REMARK   33  A    between atoms: _76  and  _79
REMARK   34  A    between atoms: _79  and  _80
REMARK   35  A    between atoms: _83  and  _85
REMARK   36  A    between atoms: _85  and  _86
REMARK   37  A    between atoms: _85  and  _88
REMARK   38  A    between atoms: _88  and  _89
REMARK   39  A    between atoms: _92  and  _94
REMARK   40  A    between atoms: _94  and  _95
REMARK   41  A    between atoms: _94  and  _97
REMARK   42  A    between atoms: _97  and  _98
REMARK   43  A    between atoms: _101  and  _103
REMARK   44  A    between atoms: _103  and  _104
REMARK   45  A    between atoms: _103  and  _106
REMARK   46  A    between atoms: _109  and  _111
REMARK   47  A    between atoms: _111  and  _112
REMARK   48  A    between atoms: _111  and  _114
REMARK   49  A    between atoms: _114  and  _115
REMARK   50  A    between atoms: _118  and  _120
REMARK   51  A    between atoms: _120  and  _121
REMARK   52  A    between atoms: _123  and  _125
REMARK   53  A    between atoms: _125  and  _126
REMARK   54  A    between atoms: _128  and  _130
REMARK   55  A    between atoms: _130  and  _131
REMARK   56  A    between atoms: _130  and  _133
REMARK   57  A    between atoms: _133  and  _134
REMARK   58  A    between atoms: _137  and  _139
REMARK   59  A    between atoms: _139  and  _140
REMARK   60  A    between atoms: _142  and  _144
REMARK   61  A    between atoms: _144  and  _145
REMARK   62  A    between atoms: _147  and  _149
REMARK   63  A    between atoms: _149  and  _150
REMARK   64  A    between atoms: _149  and  _152
REMARK   65  A    between atoms: _152  and  _153
REMARK   66  A    between atoms: _156  and  _158
REMARK   67  A    between atoms: _158  and  _159
REMARK   68  A    between atoms: _158  and  _161
REMARK   69  A    between atoms: _161  and  _162
REMARK   70  A    between atoms: _165  and  _167
REMARK   71  A    between atoms: _167  and  _168
REMARK   72  A    between atoms: _167  and  _170
REMARK   73  A    between atoms: _170  and  _171
REMARK   74  A    between atoms: _175  and  _176
REMARK   75  A    between atoms: _181  and  _183
REMARK   76  A    between atoms: _183  and  _184
REMARK   77  A    between atoms: _183  and  _186
REMARK   78  A    between atoms: _186  and  _187
REMARK   79  A    between atoms: _190  and  _192
REMARK   80  A    between atoms: _192  and  _193
REMARK   81  A    between atoms: _192  and  _195
REMARK   82  A    between atoms: _195  and  _196
REMARK   83  A    between atoms: _201  and  _203
REMARK   84  A    between atoms: _203  and  _204
REMARK   85  A    between atoms: _203  and  _206
REMARK   86  A    between atoms: _206  and  _207
REMARK   87  A    between atoms: _210  and  _212
REMARK   88  A    between atoms: _212  and  _213
REMARK   89  A    between atoms: _212  and  _215
REMARK   90  A    between atoms: _215  and  _216
REMARK   91  A    between atoms: _219  and  _221
REMARK   92  A    between atoms: _221  and  _222
REMARK   93  A    between atoms: _224  and  _226
REMARK   94  A    between atoms: _226  and  _227
REMARK   95  A    between atoms: _226  and  _229
REMARK   96  A    between atoms: _229  and  _230
REMARK   97  A    between atoms: _230  and  _231
REMARK   98  A    between atoms: _231  and  _232
REMARK   99  A    between atoms: _241  and  _243
REMARK  100  A    between atoms: _243  and  _244
REMARK  101  A    between atoms: _243  and  _246
REMARK  102  A    between atoms: _246  and  _247
REMARK  103  A    between atoms: _247  and  _248
REMARK  104  A    between atoms: _248  and  _249
REMARK  105  A    between atoms: _258  and  _260
REMARK  106  A    between atoms: _260  and  _261
REMARK  107  A    between atoms: _260  and  _263
REMARK  108  A    between atoms: _263  and  _264
REMARK  109  A    between atoms: _267  and  _269
REMARK  110  A    between atoms: _269  and  _270
REMARK  111  A    between atoms: _269  and  _272
REMARK  112  A    between atoms: _272  and  _273
REMARK  113  A    between atoms: _276  and  _278
REMARK  114  A    between atoms: _278  and  _279
REMARK  115  A    between atoms: _278  and  _281
REMARK  116  A    between atoms: _281  and  _282
REMARK  117  A    between atoms: _285  and  _287
REMARK  118  A    between atoms: _287  and  _288
REMARK  119  A    between atoms: _287  and  _290
REMARK  120  A    between atoms: _290  and  _291
REMARK  121  A    between atoms: _294  and  _296
REMARK  122  A    between atoms: _296  and  _297
REMARK  123  A    between atoms: _299  and  _301
REMARK  124  A    between atoms: _301  and  _302
REMARK  125  A    between atoms: _305  and  _307
REMARK  126  A    between atoms: _307  and  _308
REMARK  127  A    between atoms: _307  and  _310
REMARK  128  A    between atoms: _310  and  _311
REMARK  129  A    between atoms: _314  and  _316
REMARK  130  A    between atoms: _316  and  _317
REMARK  131  A    between atoms: _316  and  _319
REMARK  132  A    between atoms: _319  and  _320
REMARK  133  A    between atoms: _323  and  _325
REMARK  134  A    between atoms: _325  and  _326
REMARK  135  A    between atoms: _325  and  _328
REMARK  136  A    between atoms: _328  and  _329
REMARK  137  A    between atoms: _332  and  _334
REMARK  138  A    between atoms: _334  and  _335
REMARK  139  A    between atoms: _334  and  _337
REMARK  140  A    between atoms: _340  and  _342
REMARK  141  A    between atoms: _342  and  _343
REMARK  142  A    between atoms: _342  and  _345
REMARK  143  A    between atoms: _345  and  _346
REMARK  144  A    between atoms: _346  and  _347
REMARK  145  A    between atoms: _347  and  _348
REMARK  146  A    between atoms: _348  and  _349
REMARK  147  A    between atoms: _353  and  _355
REMARK  148  A    between atoms: _355  and  _356
REMARK  149  A    between atoms: _355  and  _358
REMARK  150  A    between atoms: _358  and  _359
REMARK  151  A    between atoms: _359  and  _360
REMARK  152  A    between atoms: _362  and  _364
REMARK  153  A    between atoms: _364  and  _365
REMARK  154  A    between atoms: _364  and  _367
REMARK  155  A    between atoms: _367  and  _368
REMARK  156  A    between atoms: _371  and  _373
REMARK  157  A    between atoms: _373  and  _374
REMARK  158  A    between atoms: _376  and  _378
REMARK  159  A    between atoms: _378  and  _379
REMARK  160  A    between atoms: _381  and  _383
REMARK  161  A    between atoms: _383  and  _384
REMARK  162  A    between atoms: _383  and  _386
REMARK  163  A    between atoms: _386  and  _387
REMARK  164  A    between atoms: _390  and  _392
REMARK  165  A    between atoms: _392  and  _393
REMARK  166  A    between atoms: _395  and  _397
REMARK  167  A    between atoms: _397  and  _398
REMARK  168  A    between atoms: _400  and  _402
REMARK  169  A    between atoms: _402  and  _403
REMARK  170  A    between atoms: _402  and  _405
REMARK  171  A    between atoms: _405  and  _406
REMARK  172  A    between atoms: _412  and  _414
REMARK  173  A    between atoms: _414  and  _415
REMARK  174  A    between atoms: _414  and  _417
REMARK  175  A    between atoms: _417  and  _418
REMARK  176  A    between atoms: _421  and  _423
REMARK  177  A    between atoms: _423  and  _424
REMARK  178  A    between atoms: _423  and  _426
REMARK  179  A    between atoms: _429  and  _431
REMARK  180  A    between atoms: _431  and  _432
REMARK  181  A    between atoms: _431  and  _434
REMARK  182  A    between atoms: _434  and  _435
REMARK  183  A    between atoms: _438  and  _440
REMARK  184  A    between atoms: _440  and  _441
REMARK  185  A    between atoms: _440  and  _443
REMARK  186  A    between atoms: _443  and  _444
REMARK  187  A    between atoms: _448  and  _449
REMARK  188  A    between atoms: _454  and  _456
REMARK  189  A    between atoms: _456  and  _457
REMARK  190  A    between atoms: _456  and  _459
REMARK  191  A    between atoms: _459  and  _460
REMARK  192  A    between atoms: _463  and  _465
REMARK  193  A    between atoms: _465  and  _466
REMARK  194  A    between atoms: _465  and  _468
REMARK  195  A    between atoms: _468  and  _469
REMARK  196  A    between atoms: _474  and  _476
REMARK  197  A    between atoms: _476  and  _477
REMARK  198  A    between atoms: _476  and  _479
REMARK  199  A    between atoms: _479  and  _480
REMARK  200  A    between atoms: _483  and  _485
REMARK  201  A    between atoms: _485  and  _486
REMARK  202  A    between atoms: _485  and  _488
REMARK  203  A    between atoms: _488  and  _489
REMARK  204  A    between atoms: _492  and  _494
REMARK  205  A    between atoms: _494  and  _495
REMARK  206  A    between atoms: _497  and  _499
REMARK  207  A    between atoms: _499  and  _500
REMARK  208  A    between atoms: _499  and  _502
REMARK  209  A    between atoms: _502  and  _503
REMARK  210  A    between atoms: _503  and  _504
REMARK  211  A    between atoms: _504  and  _505
REMARK  212  A    between atoms: _514  and  _516
REMARK  213  A    between atoms: _516  and  _517
REMARK  214  A    between atoms: _516  and  _519
REMARK  215  A    between atoms: _519  and  _520
REMARK                            x       y       z     vdW  Elec       q    Type
REMARK                         _______ _______ _______ _____ _____    ______ ____
ROOT
ATOM      1  C   GLY A   5      -4.329  13.331  26.860  0.00  0.00    +0.243 C 
ATOM      2  N   ILE A   6      -4.955  13.493  27.988  0.00  0.00    -0.297 N 
ATOM      3  H   ILE A   6      -5.845  14.027  27.920  0.00  0.00    +0.150 HD
ATOM      4  O   GLY A   5      -3.234  12.805  26.855  0.00  0.00    -0.273 OA
ENDROOT
BRANCH   2   5
ATOM      5  CA  ILE A   6      -4.606  13.041  29.353  0.00  0.00    +0.149 C 
BRANCH   5   6
ATOM      6  C   ILE A   6      -4.732  11.541  29.345  0.00  0.00    +0.241 C 
ATOM      7  N   GLY A   7      -3.803  10.626  29.579  0.00  0.00    -0.295 N 
ATOM      8  H   GLY A   7      -2.876  10.949  29.922  0.00  0.00    +0.150 HD
ATOM      9  O   ILE A   6      -5.835  11.036  29.019  0.00  0.00    -0.273 OA
BRANCH   7  10
ATOM     10  CA  GLY A   7      -4.000   9.194  29.385  0.00  0.00    +0.176 C 
BRANCH  10  11
ATOM     11  C   GLY A   7      -3.170   8.783  28.160  0.00  0.00    +0.243 C 
ATOM     12  O   GLY A   7      -2.642   7.666  28.080  0.00  0.00    -0.273 OA
ATOM     13  N   GLY A   8      -3.025   9.650  27.150  0.00  0.00    -0.295 N 
ATOM     14  H   GLY A   8      -3.500  10.573  27.210  0.00  0.00    +0.150 HD
BRANCH  13  15
ATOM     15  CA  GLY A   8      -2.227   9.347  25.970  0.00  0.00    +0.176 C 
BRANCH  15  16
ATOM     16  C   GLY A   8      -2.884   9.474  24.603  0.00  0.00    +0.243 C 
ATOM     17  O   GLY A   8      -3.688  10.377  24.398  0.00  0.00    -0.273 OA
ATOM     18  N   PHE A   9      -2.591   8.576  23.662  0.00  0.00    -0.297 N 
ATOM     19  H   PHE A   9      -1.998   7.760  23.917  0.00  0.00    +0.150 HD
BRANCH  18  20
ATOM     20  CA  PHE A   9      -3.066   8.692  22.298  0.00  0.00    +0.153 C 
BRANCH  20  21
ATOM     21  C   PHE A   9      -4.229   7.819  21.868  0.00  0.00    +0.241 C 
ATOM     22  O   PHE A   9      -4.301   6.687  22.343  0.00  0.00    -0.273 OA
ATOM     23  N   ILE A  10      -5.112   8.338  20.993  0.00  0.00    -0.298 N 
ATOM     24  H   ILE A  10      -5.120   9.347  20.742  0.00  0.00    +0.150 HD
BRANCH  23  25
ATOM     25  CA  ILE A  10      -6.066   7.374  20.416  0.00  0.00    +0.137 C 
BRANCH  25  26
ATOM     26  C   ILE A  10      -6.010   7.516  18.877  0.00  0.00    +0.227 C 
ATOM     27  O   ILE A  10      -5.667   8.505  18.249  0.00  0.00    -0.286 OA
ENDBRANCH  25  26
BRANCH  25  28
ATOM     28  CB  ILE A  10      -7.536   7.333  20.871  0.00  0.00    +0.026 C 
ATOM     29  CG2 ILE A  10      -7.658   7.249  22.388  0.00  0.00    +0.002 C 
BRANCH  28  30
ATOM     30  CG1 ILE A  10      -8.315   8.533  20.363  0.00  0.00    +0.002 C 
ATOM     31  CD1 ILE A  10      -9.728   8.732  20.832  0.00  0.00    +0.000 C 
ENDBRANCH  28  30
ENDBRANCH  25  28
ENDBRANCH  23  25
ENDBRANCH  20  21
BRANCH  20  32
ATOM     32  CB  PHE A   9      -2.030   8.209  21.291  0.00  0.00    +0.055 C 
BRANCH  32  33
ATOM     33  CG  PHE A   9      -0.956   7.220  21.549  0.00  0.00    -0.020 A 
ATOM     34  CD2 PHE A   9       0.062   7.514  22.457  0.00  0.00    -0.004 A 
ATOM     35  CE2 PHE A   9       1.141   6.672  22.659  0.00  0.00    -0.000 A 
ATOM     36  CZ  PHE A   9       1.183   5.473  21.969  0.00  0.00    -0.000 A 
ATOM     37  CE1 PHE A   9       0.195   5.140  21.053  0.00  0.00    -0.000 A 
ATOM     38  CD1 PHE A   9      -0.842   6.027  20.855  0.00  0.00    -0.004 A 
ENDBRANCH  32  33
ENDBRANCH  20  32
ENDBRANCH  18  20
ENDBRANCH  15  16
ENDBRANCH  13  15
ENDBRANCH  10  11
ENDBRANCH   7  10
ENDBRANCH   5   6
BRANCH   5  39
ATOM     39  CB  ILE A   6      -5.689  13.897  30.060  0.00  0.00    +0.027 C 
ATOM     40  CG2 ILE A   6      -6.940  13.159  30.484  0.00  0.00    +0.002 C 
BRANCH  39  41
ATOM     41  CG1 ILE A   6      -5.142  14.724  31.224  0.00  0.00    +0.002 C 
ATOM     42  CD1 ILE A   6      -4.753  16.167  30.869  0.00  0.00    +0.000 C 
ENDBRANCH  39  41
ENDBRANCH   5  39
ENDBRANCH   2   5
BRANCH   1  43
ATOM     43  CA  GLY A   5      -5.055  13.798  25.599  0.00  0.00    +0.176 C 
BRANCH  43  45
ATOM     44  C   GLY A   4      -4.499  13.580  23.287  0.00  0.00    +0.243 C 
ATOM     45  N   GLY A   5      -4.607  12.949  24.466  0.00  0.00    -0.295 N 
ATOM     46  H   GLY A   5      -4.392  11.938  24.578  0.00  0.00    +0.150 HD
ATOM     47  O   GLY A   4      -5.037  14.661  23.023  0.00  0.00    -0.273 OA
BRANCH  44  48
ATOM     48  CA  GLY A   4      -3.690  12.849  22.214  0.00  0.00    +0.176 C 
BRANCH  48  50
ATOM     49  C   ILE A   3      -4.499  12.067  20.086  0.00  0.00    +0.241 C 
ATOM     50  N   GLY A   4      -4.070  13.058  20.839  0.00  0.00    -0.295 N 
ATOM     51  H   GLY A   4      -4.004  14.013  20.433  0.00  0.00    +0.150 HD
ATOM     52  O   ILE A   3      -4.586  10.906  20.489  0.00  0.00    -0.273 OA
BRANCH  49  53
ATOM     53  CA  ILE A   3      -4.913  12.442  18.666  0.00  0.00    +0.149 C 
BRANCH  53  55
ATOM     54  C   MET A   2      -4.208  11.170  16.695  0.00  0.00    +0.241 C 
ATOM     55  N   ILE A   3      -4.887  11.290  17.813  0.00  0.00    -0.297 N 
ATOM     56  H   ILE A   3      -5.459  10.473  18.107  0.00  0.00    +0.150 HD
ATOM     57  O   MET A   2      -3.539  12.100  16.275  0.00  0.00    -0.273 OA
BRANCH  54  58
ATOM     58  CA  MET A   2      -4.353   9.835  15.944  0.00  0.00    +0.149 C 
BRANCH  58  60
ATOM     59  C   LYS A   1      -5.419   9.578  13.798  0.00  0.00    +0.238 C 
ATOM     60  N   MET A   2      -4.468  10.142  14.506  0.00  0.00    -0.297 N 
ATOM     61  H   MET A   2      -3.801  10.801  14.056  0.00  0.00    +0.150 HD
ATOM     62  O   LYS A   1      -6.120   8.646  14.222  0.00  0.00    -0.274 OA
BRANCH  59  63
ATOM     63  CA  LYS A   1      -5.707   9.993  12.356  0.00  0.00    +0.145 C 
BRANCH  63  64
ATOM     64  N   LYS A   1      -6.350   8.819  11.754  0.00  0.00    -0.238 NA
ATOM     65  H   LYS A   1      -7.004   8.251  12.329  0.00  0.00    +0.142 HD
ENDBRANCH  63  64
BRANCH  63  66
ATOM     66  CB  LYS A   1      -6.630  11.203  12.452  0.00  0.00    +0.026 C 
BRANCH  66  67
ATOM     67  CG  LYS A   1      -5.970  12.540  12.686  0.00  0.00    -0.000 C 
BRANCH  67  68
ATOM     68  CD  LYS A   1      -7.006  13.558  13.166  0.00  0.00    -0.024 C 
BRANCH  68  69
ATOM     69  CE  LYS A   1      -6.505  14.990  13.172  0.00  0.00    -0.086 C 
BRANCH  69  70
ATOM     70  NZ  LYS A   1      -7.560  16.045  13.330  0.00  0.00    +0.380 N 
ATOM     71  HZ1 LYS A   1      -8.057  15.904  14.233  0.00  0.00    -0.089 HD
ATOM     72  HZ2 LYS A   1      -7.113  16.984  13.321  0.00  0.00    -0.089 HD
ATOM     73  HZ3 LYS A   1      -8.239  15.975  12.545  0.00  0.00    -0.089 HD
ENDBRANCH  69  70
ENDBRANCH  68  69
ENDBRANCH  67  68
ENDBRANCH  66  67
ENDBRANCH  63  66
ENDBRANCH  59  63
ENDBRANCH  58  60
BRANCH  58  74
ATOM     74  CB  MET A   2      -3.187   8.989  16.295  0.00  0.00    +0.041 C 
BRANCH  74  75
ATOM     75  CG  MET A   2      -3.220   7.481  16.127  0.00  0.00    +0.060 C 
BRANCH  75  76
ATOM     76  SD  MET A   2      -1.458   7.013  16.261  0.00  0.00    -0.139 S 
ATOM     77  CE  MET A   2      -1.577   5.915  17.672  0.00  0.00    +0.069 C 
ENDBRANCH  75  76
ENDBRANCH  74  75
ENDBRANCH  58  74
ENDBRANCH  54  58
ENDBRANCH  53  55
BRANCH  53  78
ATOM     78  CB  ILE A   3      -6.323  13.058  18.797  0.00  0.00    +0.027 C 
ATOM     79  CG2 ILE A   3      -6.872  13.492  17.446  0.00  0.00    +0.002 C 
BRANCH  78  80
ATOM     80  CG1 ILE A   3      -7.292  12.053  19.400  0.00  0.00    +0.002 C 
ATOM     81  CD1 ILE A   3      -8.707  12.522  19.609  0.00  0.00    +0.000 C 
ENDBRANCH  78  80
ENDBRANCH  53  78
ENDBRANCH  49  53
ENDBRANCH  48  50
ENDBRANCH  44  48
ENDBRANCH  43  45
ENDBRANCH   1  43
TORSDOF 36
REMARK  Name = ../refined-set-2016/1gnm/1gnm_pocket.pdb
REMARK  215 active torsions:
REMARK  status: ('A' for Active; 'I' for Inactive)
REMARK    1  A    between atoms: _1  and  _3
REMARK    2  A    between atoms: _3  and  _4
REMARK    3  A    between atoms: _3  and  _6
REMARK    4  A    between atoms: _6  and  _7
REMARK    5  A    between atoms: _7  and  _8
REMARK    6  A    between atoms: _8  and  _9
REMARK    7  A    between atoms: _18  and  _20
REMARK    8  A    between atoms: _20  and  _21
REMARK    9  A    between atoms: _20  and  _23
REMARK   10  A    between atoms: _23  and  _24
REMARK   11  A    between atoms: _27  and  _29
REMARK   12  A    between atoms: _29  and  _30
REMARK   13  A    between atoms: _29  and  _32
REMARK   14  A    between atoms: _32  and  _33
REMARK   15  A    between atoms: _36  and  _38
REMARK   16  A    between atoms: _38  and  _39
REMARK   17  A    between atoms: _38  and  _41
REMARK   18  A    between atoms: _41  and  _42
REMARK   19  A    between atoms: _45  and  _47
REMARK   20  A    between atoms: _47  and  _48
REMARK   21  A    between atoms: _47  and  _50
REMARK   22  A    between atoms: _50  and  _51
REMARK   23  A    between atoms: _54  and  _56
REMARK   24  A    between atoms: _56  and  _57
REMARK   25  A    between atoms: _56  and  _59
REMARK   26  A    between atoms: _59  and  _60
REMARK   27  A    between atoms: _63  and  _65
REMARK   28  A    between atoms: _65  and  _66
REMARK   29  A    between atoms: _68  and  _70
REMARK   30  A    between atoms: _70  and  _71
REMARK   31  A    between atoms: _74  and  _76
REMARK   32  A    between atoms: _76  and  _77
REMARK   33  A    between atoms: _76  and  _79
REMARK   34  A    between atoms: _79  and  _80
REMARK   35  A    between atoms: _83  and  _85
REMARK   36  A    between atoms: _85  and  _86
REMARK   37  A    between atoms: _85  and  _88
REMARK   38  A    between atoms: _88  and  _89
REMARK   39  A    between atoms: _92  and  _94
REMARK   40  A    between atoms: _94  and  _95
REMARK   41  A    between atoms: _94  and  _97
REMARK   42  A    between atoms: _97  and  _98
REMARK   43  A    between atoms: _101  and  _103
REMARK   44  A    between atoms: _103  and  _104
REMARK   45  A    between atoms: _103  and  _106
REMARK   46  A    between atoms: _109  and  _111
REMARK   47  A    between atoms: _111  and  _112
REMARK   48  A    between atoms: _111  and  _114
REMARK   49  A    between atoms: _114  and  _115
REMARK   50  A    between atoms: _118  and  _120
REMARK   51  A    between atoms: _120  and  _121
REMARK   52  A    between atoms: _123  and  _125
REMARK   53  A    between atoms: _125  and  _126
REMARK   54  A    between atoms: _128  and  _130
REMARK   55  A    between atoms: _130  and  _131
REMARK   56  A    between atoms: _130  and  _133
REMARK   57  A    between atoms: _133  and  _134
REMARK   58  A    between atoms: _137  and  _139
REMARK   59  A    between atoms: _139  and  _140
REMARK   60  A    between atoms: _142  and  _144
REMARK   61  A    between atoms: _144  and  _145
REMARK   62  A    between atoms: _147  and  _149
REMARK   63  A    between atoms: _149  and  _150
REMARK   64  A    between atoms: _149  and  _152
REMARK   65  A    between atoms: _152  and  _153
REMARK   66  A    between atoms: _156  and  _158
REMARK   67  A    between atoms: _158  and  _159
REMARK   68  A    between atoms: _158  and  _161
REMARK   69  A    between atoms: _161  and  _162
REMARK   70  A    between atoms: _165  and  _167
REMARK   71  A    between atoms: _167  and  _168
REMARK   72  A    between atoms: _167  and  _170
REMARK   73  A    between atoms: _170  and  _171
REMARK   74  A    between atoms: _175  and  _176
REMARK   75  A    between atoms: _181  and  _183
REMARK   76  A    between atoms: _183  and  _184
REMARK   77  A    between atoms: _183  and  _186
REMARK   78  A    between atoms: _186  and  _187
REMARK   79  A    between atoms: _190  and  _192
REMARK   80  A    between atoms: _192  and  _193
REMARK   81  A    between atoms: _192  and  _195
REMARK   82  A    between atoms: _195  and  _196
REMARK   83  A    between atoms: _201  and  _203
REMARK   84  A    between atoms: _203  and  _204
REMARK   85  A    between atoms: _203  and  _206
REMARK   86  A    between atoms: _206  and  _207
REMARK   87  A    between atoms: _210  and  _212
REMARK   88  A    between atoms: _212  and  _213
REMARK   89  A    between atoms: _212  and  _215
REMARK   90  A    between atoms: _215  and  _216
REMARK   91  A    between atoms: _219  and  _221
REMARK   92  A    between atoms: _221  and  _222
REMARK   93  A    between atoms: _224  and  _226
REMARK   94  A    between atoms: _226  and  _227
REMARK   95  A    between atoms: _226  and  _229
REMARK   96  A    between atoms: _229  and  _230
REMARK   97  A    between atoms: _230  and  _231
REMARK   98  A    between atoms: _231  and  _232
REMARK   99  A    between atoms: _241  and  _243
REMARK  100  A    between atoms: _243  and  _244
REMARK  101  A    between atoms: _243  and  _246
REMARK  102  A    between atoms: _246  and  _247
REMARK  103  A    between atoms: _247  and  _248
REMARK  104  A    between atoms: _248  and  _249
REMARK  105  A    between atoms: _258  and  _260
REMARK  106  A    between atoms: _260  and  _261
REMARK  107  A    between atoms: _260  and  _263
REMARK  108  A    between atoms: _263  and  _264
REMARK  109  A    between atoms: _267  and  _269
REMARK  110  A    between atoms: _269  and  _270
REMARK  111  A    between atoms: _269  and  _272
REMARK  112  A    between atoms: _272  and  _273
REMARK  113  A    between atoms: _276  and  _278
REMARK  114  A    between atoms: _278  and  _279
REMARK  115  A    between atoms: _278  and  _281
REMARK  116  A    between atoms: _281  and  _282
REMARK  117  A    between atoms: _285  and  _287
REMARK  118  A    between atoms: _287  and  _288
REMARK  119  A    between atoms: _287  and  _290
REMARK  120  A    between atoms: _290  and  _291
REMARK  121  A    between atoms: _294  and  _296
REMARK  122  A    between atoms: _296  and  _297
REMARK  123  A    between atoms: _299  and  _301
REMARK  124  A    between atoms: _301  and  _302
REMARK  125  A    between atoms: _305  and  _307
REMARK  126  A    between atoms: _307  and  _308
REMARK  127  A    between atoms: _307  and  _310
REMARK  128  A    between atoms: _310  and  _311
REMARK  129  A    between atoms: _314  and  _316
REMARK  130  A    between atoms: _316  and  _317
REMARK  131  A    between atoms: _316  and  _319
REMARK  132  A    between atoms: _319  and  _320
REMARK  133  A    between atoms: _323  and  _325
REMARK  134  A    between atoms: _325  and  _326
REMARK  135  A    between atoms: _325  and  _328
REMARK  136  A    between atoms: _328  and  _329
REMARK  137  A    between atoms: _332  and  _334
REMARK  138  A    between atoms: _334  and  _335
REMARK  139  A    between atoms: _334  and  _337
REMARK  140  A    between atoms: _340  and  _342
REMARK  141  A    between atoms: _342  and  _343
REMARK  142  A    between atoms: _342  and  _345
REMARK  143  A    between atoms: _345  and  _346
REMARK  144  A    between atoms: _346  and  _347
REMARK  145  A    between atoms: _347  and  _348
REMARK  146  A    between atoms: _348  and  _349
REMARK  147  A    between atoms: _353  and  _355
REMARK  148  A    between atoms: _355  and  _356
REMARK  149  A    between atoms: _355  and  _358
REMARK  150  A    between atoms: _358  and  _359
REMARK  151  A    between atoms: _359  and  _360
REMARK  152  A    between atoms: _362  and  _364
REMARK  153  A    between atoms: _364  and  _365
REMARK  154  A    between atoms: _364  and  _367
REMARK  155  A    between atoms: _367  and  _368
REMARK  156  A    between atoms: _371  and  _373
REMARK  157  A    between atoms: _373  and  _374
REMARK  158  A    between atoms: _376  and  _378
REMARK  159  A    between atoms: _378  and  _379
REMARK  160  A    between atoms: _381  and  _383
REMARK  161  A    between atoms: _383  and  _384
REMARK  162  A    between atoms: _383  and  _386
REMARK  163  A    between atoms: _386  and  _387
REMARK  164  A    between atoms: _390  and  _392
REMARK  165  A    between atoms: _392  and  _393
REMARK  166  A    between atoms: _395  and  _397
REMARK  167  A    between atoms: _397  and  _398
REMARK  168  A    between atoms: _400  and  _402
REMARK  169  A    between atoms: _402  and  _403
REMARK  170  A    between atoms: _402  and  _405
REMARK  171  A    between atoms: _405  and  _406
REMARK  172  A    between atoms: _412  and  _414
REMARK  173  A    between atoms: _414  and  _415
REMARK  174  A    between atoms: _414  and  _417
REMARK  175  A    between atoms: _417  and  _418
REMARK  176  A    between atoms: _421  and  _423
REMARK  177  A    between atoms: _423  and  _424
REMARK  178  A    between atoms: _423  and  _426
REMARK  179  A    between atoms: _429  and  _431
REMARK  180  A    between atoms: _431  and  _432
REMARK  181  A    between atoms: _431  and  _434
REMARK  182  A    between atoms: _434  and  _435
REMARK  183  A    between atoms: _438  and  _440
REMARK  184  A    between atoms: _440  and  _441
REMARK  185  A    between atoms: _440  and  _443
REMARK  186  A    between atoms: _443  and  _444
REMARK  187  A    between atoms: _448  and  _449
REMARK  188  A    between atoms: _454  and  _456
REMARK  189  A    between atoms: _456  and  _457
REMARK  190  A    between atoms: _456  and  _459
REMARK  191  A    between atoms: _459  and  _460
REMARK  192  A    between atoms: _463  and  _465
REMARK  193  A    between atoms: _465  and  _466
REMARK  194  A    between atoms: _465  and  _468
REMARK  195  A    between atoms: _468  and  _469
REMARK  196  A    between atoms: _474  and  _476
REMARK  197  A    between atoms: _476  and  _477
REMARK  198  A    between atoms: _476  and  _479
REMARK  199  A    between atoms: _479  and  _480
REMARK  200  A    between atoms: _483  and  _485
REMARK  201  A    between atoms: _485  and  _486
REMARK  202  A    between atoms: _485  and  _488
REMARK  203  A    between atoms: _488  and  _489
REMARK  204  A    between atoms: _492  and  _494
REMARK  205  A    between atoms: _494  and  _495
REMARK  206  A    between atoms: _497  and  _499
REMARK  207  A    between atoms: _499  and  _500
REMARK  208  A    between atoms: _499  and  _502
REMARK  209  A    between atoms: _502  and  _503
REMARK  210  A    between atoms: _503  and  _504
REMARK  211  A    between atoms: _504  and  _505
REMARK  212  A    between atoms: _514  and  _516
REMARK  213  A    between atoms: _516  and  _517
REMARK  214  A    between atoms: _516  and  _519
REMARK  215  A    between atoms: _519  and  _520
REMARK                            x       y       z     vdW  Elec       q    Type
REMARK                         _______ _______ _______ _____ _____    ______ ____
ROOT
ATOM      1  CA  VAL A   1      -9.656   7.814  15.496  0.00  0.00    +0.133 C 
ENDROOT
BRANCH   1   2
ATOM      2  CB  VAL A   1     -10.019   9.225  16.014  0.00  0.00    +0.023 C 
ATOM      3  CG2 VAL A   1     -10.027   9.300  17.543  0.00  0.00    +0.002 C 
ATOM      4  CG1 VAL A   1      -8.989  10.218  15.510  0.00  0.00    +0.002 C 
ENDBRANCH   1   2
BRANCH   1   5
ATOM      5  N   VAL A   1      -8.274   7.467  15.821  0.00  0.00    -0.239 NA
ATOM      6  H   VAL A   1      -7.508   8.063  15.448  0.00  0.00    +0.142 HD
ENDBRANCH   1   5
BRANCH   1   7
ATOM      7  C   VAL A   1      -9.735   7.868  13.972  0.00  0.00    +0.224 C 
ATOM      8  O   VAL A   1      -8.658   7.947  13.349  0.00  0.00    -0.287 OA
ENDBRANCH   1   7
TORSDOF 3
REMARK  Name = ../refined-set-2016/1gnm/1gnm_pocket.pdb
REMARK  215 active torsions:
REMARK  status: ('A' for Active; 'I' for Inactive)
REMARK    1  A    between atoms: _1  and  _3
REMARK    2  A    between atoms: _3  and  _4
REMARK    3  A    between atoms: _3  and  _6
REMARK    4  A    between atoms: _6  and  _7
REMARK    5  A    between atoms: _7  and  _8
REMARK    6  A    between atoms: _8  and  _9
REMARK    7  A    between atoms: _18  and  _20
REMARK    8  A    between atoms: _20  and  _21
REMARK    9  A    between atoms: _20  and  _23
REMARK   10  A    between atoms: _23  and  _24
REMARK   11  A    between atoms: _27  and  _29
REMARK   12  A    between atoms: _29  and  _30
REMARK   13  A    between atoms: _29  and  _32
REMARK   14  A    between atoms: _32  and  _33
REMARK   15  A    between atoms: _36  and  _38
REMARK   16  A    between atoms: _38  and  _39
REMARK   17  A    between atoms: _38  and  _41
REMARK   18  A    between atoms: _41  and  _42
REMARK   19  A    between atoms: _45  and  _47
REMARK   20  A    between atoms: _47  and  _48
REMARK   21  A    between atoms: _47  and  _50
REMARK   22  A    between atoms: _50  and  _51
REMARK   23  A    between atoms: _54  and  _56
REMARK   24  A    between atoms: _56  and  _57
REMARK   25  A    between atoms: _56  and  _59
REMARK   26  A    between atoms: _59  and  _60
REMARK   27  A    between atoms: _63  and  _65
REMARK   28  A    between atoms: _65  and  _66
REMARK   29  A    between atoms: _68  and  _70
REMARK   30  A    between atoms: _70  and  _71
REMARK   31  A    between atoms: _74  and  _76
REMARK   32  A    between atoms: _76  and  _77
REMARK   33  A    between atoms: _76  and  _79
REMARK   34  A    between atoms: _79  and  _80
REMARK   35  A    between atoms: _83  and  _85
REMARK   36  A    between atoms: _85  and  _86
REMARK   37  A    between atoms: _85  and  _88
REMARK   38  A    between atoms: _88  and  _89
REMARK   39  A    between atoms: _92  and  _94
REMARK   40  A    between atoms: _94  and  _95
REMARK   41  A    between atoms: _94  and  _97
REMARK   42  A    between atoms: _97  and  _98
REMARK   43  A    between atoms: _101  and  _103
REMARK   44  A    between atoms: _103  and  _104
REMARK   45  A    between atoms: _103  and  _106
REMARK   46  A    between atoms: _109  and  _111
REMARK   47  A    between atoms: _111  and  _112
REMARK   48  A    between atoms: _111  and  _114
REMARK   49  A    between atoms: _114  and  _115
REMARK   50  A    between atoms: _118  and  _120
REMARK   51  A    between atoms: _120  and  _121
REMARK   52  A    between atoms: _123  and  _125
REMARK   53  A    between atoms: _125  and  _126
REMARK   54  A    between atoms: _128  and  _130
REMARK   55  A    between atoms: _130  and  _131
REMARK   56  A    between atoms: _130  and  _133
REMARK   57  A    between atoms: _133  and  _134
REMARK   58  A    between atoms: _137  and  _139
REMARK   59  A    between atoms: _139  and  _140
REMARK   60  A    between atoms: _142  and  _144
REMARK   61  A    between atoms: _144  and  _145
REMARK   62  A    between atoms: _147  and  _149
REMARK   63  A    between atoms: _149  and  _150
REMARK   64  A    between atoms: _149  and  _152
REMARK   65  A    between atoms: _152  and  _153
REMARK   66  A    between atoms: _156  and  _158
REMARK   67  A    between atoms: _158  and  _159
REMARK   68  A    between atoms: _158  and  _161
REMARK   69  A    between atoms: _161  and  _162
REMARK   70  A    between atoms: _165  and  _167
REMARK   71  A    between atoms: _167  and  _168
REMARK   72  A    between atoms: _167  and  _170
REMARK   73  A    between atoms: _170  and  _171
REMARK   74  A    between atoms: _175  and  _176
REMARK   75  A    between atoms: _181  and  _183
REMARK   76  A    between atoms: _183  and  _184
REMARK   77  A    between atoms: _183  and  _186
REMARK   78  A    between atoms: _186  and  _187
REMARK   79  A    between atoms: _190  and  _192
REMARK   80  A    between atoms: _192  and  _193
REMARK   81  A    between atoms: _192  and  _195
REMARK   82  A    between atoms: _195  and  _196
REMARK   83  A    between atoms: _201  and  _203
REMARK   84  A    between atoms: _203  and  _204
REMARK   85  A    between atoms: _203  and  _206
REMARK   86  A    between atoms: _206  and  _207
REMARK   87  A    between atoms: _210  and  _212
REMARK   88  A    between atoms: _212  and  _213
REMARK   89  A    between atoms: _212  and  _215
REMARK   90  A    between atoms: _215  and  _216
REMARK   91  A    between atoms: _219  and  _221
REMARK   92  A    between atoms: _221  and  _222
REMARK   93  A    between atoms: _224  and  _226
REMARK   94  A    between atoms: _226  and  _227
REMARK   95  A    between atoms: _226  and  _229
REMARK   96  A    between atoms: _229  and  _230
REMARK   97  A    between atoms: _230  and  _231
REMARK   98  A    between atoms: _231  and  _232
REMARK   99  A    between atoms: _241  and  _243
REMARK  100  A    between atoms: _243  and  _244
REMARK  101  A    between atoms: _243  and  _246
REMARK  102  A    between atoms: _246  and  _247
REMARK  103  A    between atoms: _247  and  _248
REMARK  104  A    between atoms: _248  and  _249
REMARK  105  A    between atoms: _258  and  _260
REMARK  106  A    between atoms: _260  and  _261
REMARK  107  A    between atoms: _260  and  _263
REMARK  108  A    between atoms: _263  and  _264
REMARK  109  A    between atoms: _267  and  _269
REMARK  110  A    between atoms: _269  and  _270
REMARK  111  A    between atoms: _269  and  _272
REMARK  112  A    between atoms: _272  and  _273
REMARK  113  A    between atoms: _276  and  _278
REMARK  114  A    between atoms: _278  and  _279
REMARK  115  A    between atoms: _278  and  _281
REMARK  116  A    between atoms: _281  and  _282
REMARK  117  A    between atoms: _285  and  _287
REMARK  118  A    between atoms: _287  and  _288
REMARK  119  A    between atoms: _287  and  _290
REMARK  120  A    between atoms: _290  and  _291
REMARK  121  A    between atoms: _294  and  _296
REMARK  122  A    between atoms: _296  and  _297
REMARK  123  A    between atoms: _299  and  _301
REMARK  124  A    between atoms: _301  and  _302
REMARK  125  A    between atoms: _305  and  _307
REMARK  126  A    between atoms: _307  and  _308
REMARK  127  A    between atoms: _307  and  _310
REMARK  128  A    between atoms: _310  and  _311
REMARK  129  A    between atoms: _314  and  _316
REMARK  130  A    between atoms: _316  and  _317
REMARK  131  A    between atoms: _316  and  _319
REMARK  132  A    between atoms: _319  and  _320
REMARK  133  A    between atoms: _323  and  _325
REMARK  134  A    between atoms: _325  and  _326
REMARK  135  A    between atoms: _325  and  _328
REMARK  136  A    between atoms: _328  and  _329
REMARK  137  A    between atoms: _332  and  _334
REMARK  138  A    between atoms: _334  and  _335
REMARK  139  A    between atoms: _334  and  _337
REMARK  140  A    between atoms: _340  and  _342
REMARK  141  A    between atoms: _342  and  _343
REMARK  142  A    between atoms: _342  and  _345
REMARK  143  A    between atoms: _345  and  _346
REMARK  144  A    between atoms: _346  and  _347
REMARK  145  A    between atoms: _347  and  _348
REMARK  146  A    between atoms: _348  and  _349
REMARK  147  A    between atoms: _353  and  _355
REMARK  148  A    between atoms: _355  and  _356
REMARK  149  A    between atoms: _355  and  _358
REMARK  150  A    between atoms: _358  and  _359
REMARK  151  A    between atoms: _359  and  _360
REMARK  152  A    between atoms: _362  and  _364
REMARK  153  A    between atoms: _364  and  _365
REMARK  154  A    between atoms: _364  and  _367
REMARK  155  A    between atoms: _367  and  _368
REMARK  156  A    between atoms: _371  and  _373
REMARK  157  A    between atoms: _373  and  _374
REMARK  158  A    between atoms: _376  and  _378
REMARK  159  A    between atoms: _378  and  _379
REMARK  160  A    between atoms: _381  and  _383
REMARK  161  A    between atoms: _383  and  _384
REMARK  162  A    between atoms: _383  and  _386
REMARK  163  A    between atoms: _386  and  _387
REMARK  164  A    between atoms: _390  and  _392
REMARK  165  A    between atoms: _392  and  _393
REMARK  166  A    between atoms: _395  and  _397
REMARK  167  A    between atoms: _397  and  _398
REMARK  168  A    between atoms: _400  and  _402
REMARK  169  A    between atoms: _402  and  _403
REMARK  170  A    between atoms: _402  and  _405
REMARK  171  A    between atoms: _405  and  _406
REMARK  172  A    between atoms: _412  and  _414
REMARK  173  A    between atoms: _414  and  _415
REMARK  174  A    between atoms: _414  and  _417
REMARK  175  A    between atoms: _417  and  _418
REMARK  176  A    between atoms: _421  and  _423
REMARK  177  A    between atoms: _423  and  _424
REMARK  178  A    between atoms: _423  and  _426
REMARK  179  A    between atoms: _429  and  _431
REMARK  180  A    between atoms: _431  and  _432
REMARK  181  A    between atoms: _431  and  _434
REMARK  182  A    between atoms: _434  and  _435
REMARK  183  A    between atoms: _438  and  _440
REMARK  184  A    between atoms: _440  and  _441
REMARK  185  A    between atoms: _440  and  _443
REMARK  186  A    between atoms: _443  and  _444
REMARK  187  A    between atoms: _448  and  _449
REMARK  188  A    between atoms: _454  and  _456
REMARK  189  A    between atoms: _456  and  _457
REMARK  190  A    between atoms: _456  and  _459
REMARK  191  A    between atoms: _459  and  _460
REMARK  192  A    between atoms: _463  and  _465
REMARK  193  A    between atoms: _465  and  _466
REMARK  194  A    between atoms: _465  and  _468
REMARK  195  A    between atoms: _468  and  _469
REMARK  196  A    between atoms: _474  and  _476
REMARK  197  A    between atoms: _476  and  _477
REMARK  198  A    between atoms: _476  and  _479
REMARK  199  A    between atoms: _479  and  _480
REMARK  200  A    between atoms: _483  and  _485
REMARK  201  A    between atoms: _485  and  _486
REMARK  202  A    between atoms: _485  and  _488
REMARK  203  A    between atoms: _488  and  _489
REMARK  204  A    between atoms: _492  and  _494
REMARK  205  A    between atoms: _494  and  _495
REMARK  206  A    between atoms: _497  and  _499
REMARK  207  A    between atoms: _499  and  _500
REMARK  208  A    between atoms: _499  and  _502
REMARK  209  A    between atoms: _502  and  _503
REMARK  210  A    between atoms: _503  and  _504
REMARK  211  A    between atoms: _504  and  _505
REMARK  212  A    between atoms: _514  and  _516
REMARK  213  A    between atoms: _516  and  _517
REMARK  214  A    between atoms: _516  and  _519
REMARK  215  A    between atoms: _519  and  _520
REMARK                            x       y       z     vdW  Elec       q    Type
REMARK                         _______ _______ _______ _____ _____    ______ ____
ROOT
ATOM      1  CA  LEU A   1     -13.334  12.460  14.358  0.00  0.00    +0.133 C 
ENDROOT
BRANCH   1   2
ATOM      2  N   LEU A   1     -14.187  13.621  14.141  0.00  0.00    -0.239 NA
ATOM      3  H   LEU A   1     -14.353  14.272  14.934  0.00  0.00    +0.142 HD
ENDBRANCH   1   2
BRANCH   1   4
ATOM      4  C   LEU A   1     -14.139  11.386  15.074  0.00  0.00    +0.224 C 
ATOM      5  O   LEU A   1     -14.741  11.752  16.088  0.00  0.00    -0.287 OA
ENDBRANCH   1   4
BRANCH   1   6
ATOM      6  CB  LEU A   1     -12.150  12.866  15.228  0.00  0.00    +0.025 C 
BRANCH   6   7
ATOM      7  CG  LEU A   1     -11.232  13.946  14.689  0.00  0.00    +0.002 C 
ATOM      8  CD2 LEU A   1      -9.987  14.006  15.577  0.00  0.00    +0.000 C 
ATOM      9  CD1 LEU A   1     -10.817  13.656  13.277  0.00  0.00    +0.000 C 
ENDBRANCH   6   7
ENDBRANCH   1   6
TORSDOF 4
REMARK  Name = ../refined-set-2016/1gnm/1gnm_pocket.pdb
REMARK  215 active torsions:
REMARK  status: ('A' for Active; 'I' for Inactive)
REMARK    1  A    between atoms: _1  and  _3
REMARK    2  A    between atoms: _3  and  _4
REMARK    3  A    between atoms: _3  and  _6
REMARK    4  A    between atoms: _6  and  _7
REMARK    5  A    between atoms: _7  and  _8
REMARK    6  A    between atoms: _8  and  _9
REMARK    7  A    between atoms: _18  and  _20
REMARK    8  A    between atoms: _20  and  _21
REMARK    9  A    between atoms: _20  and  _23
REMARK   10  A    between atoms: _23  and  _24
REMARK   11  A    between atoms: _27  and  _29
REMARK   12  A    between atoms: _29  and  _30
REMARK   13  A    between atoms: _29  and  _32
REMARK   14  A    between atoms: _32  and  _33
REMARK   15  A    between atoms: _36  and  _38
REMARK   16  A    between atoms: _38  and  _39
REMARK   17  A    between atoms: _38  and  _41
REMARK   18  A    between atoms: _41  and  _42
REMARK   19  A    between atoms: _45  and  _47
REMARK   20  A    between atoms: _47  and  _48
REMARK   21  A    between atoms: _47  and  _50
REMARK   22  A    between atoms: _50  and  _51
REMARK   23  A    between atoms: _54  and  _56
REMARK   24  A    between atoms: _56  and  _57
REMARK   25  A    between atoms: _56  and  _59
REMARK   26  A    between atoms: _59  and  _60
REMARK   27  A    between atoms: _63  and  _65
REMARK   28  A    between atoms: _65  and  _66
REMARK   29  A    between atoms: _68  and  _70
REMARK   30  A    between atoms: _70  and  _71
REMARK   31  A    between atoms: _74  and  _76
REMARK   32  A    between atoms: _76  and  _77
REMARK   33  A    between atoms: _76  and  _79
REMARK   34  A    between atoms: _79  and  _80
REMARK   35  A    between atoms: _83  and  _85
REMARK   36  A    between atoms: _85  and  _86
REMARK   37  A    between atoms: _85  and  _88
REMARK   38  A    between atoms: _88  and  _89
REMARK   39  A    between atoms: _92  and  _94
REMARK   40  A    between atoms: _94  and  _95
REMARK   41  A    between atoms: _94  and  _97
REMARK   42  A    between atoms: _97  and  _98
REMARK   43  A    between atoms: _101  and  _103
REMARK   44  A    between atoms: _103  and  _104
REMARK   45  A    between atoms: _103  and  _106
REMARK   46  A    between atoms: _109  and  _111
REMARK   47  A    between atoms: _111  and  _112
REMARK   48  A    between atoms: _111  and  _114
REMARK   49  A    between atoms: _114  and  _115
REMARK   50  A    between atoms: _118  and  _120
REMARK   51  A    between atoms: _120  and  _121
REMARK   52  A    between atoms: _123  and  _125
REMARK   53  A    between atoms: _125  and  _126
REMARK   54  A    between atoms: _128  and  _130
REMARK   55  A    between atoms: _130  and  _131
REMARK   56  A    between atoms: _130  and  _133
REMARK   57  A    between atoms: _133  and  _134
REMARK   58  A    between atoms: _137  and  _139
REMARK   59  A    between atoms: _139  and  _140
REMARK   60  A    between atoms: _142  and  _144
REMARK   61  A    between atoms: _144  and  _145
REMARK   62  A    between atoms: _147  and  _149
REMARK   63  A    between atoms: _149  and  _150
REMARK   64  A    between atoms: _149  and  _152
REMARK   65  A    between atoms: _152  and  _153
REMARK   66  A    between atoms: _156  and  _158
REMARK   67  A    between atoms: _158  and  _159
REMARK   68  A    between atoms: _158  and  _161
REMARK   69  A    between atoms: _161  and  _162
REMARK   70  A    between atoms: _165  and  _167
REMARK   71  A    between atoms: _167  and  _168
REMARK   72  A    between atoms: _167  and  _170
REMARK   73  A    between atoms: _170  and  _171
REMARK   74  A    between atoms: _175  and  _176
REMARK   75  A    between atoms: _181  and  _183
REMARK   76  A    between atoms: _183  and  _184
REMARK   77  A    between atoms: _183  and  _186
REMARK   78  A    between atoms: _186  and  _187
REMARK   79  A    between atoms: _190  and  _192
REMARK   80  A    between atoms: _192  and  _193
REMARK   81  A    between atoms: _192  and  _195
REMARK   82  A    between atoms: _195  and  _196
REMARK   83  A    between atoms: _201  and  _203
REMARK   84  A    between atoms: _203  and  _204
REMARK   85  A    between atoms: _203  and  _206
REMARK   86  A    between atoms: _206  and  _207
REMARK   87  A    between atoms: _210  and  _212
REMARK   88  A    between atoms: _212  and  _213
REMARK   89  A    between atoms: _212  and  _215
REMARK   90  A    between atoms: _215  and  _216
REMARK   91  A    between atoms: _219  and  _221
REMARK   92  A    between atoms: _221  and  _222
REMARK   93  A    between atoms: _224  and  _226
REMARK   94  A    between atoms: _226  and  _227
REMARK   95  A    between atoms: _226  and  _229
REMARK   96  A    between atoms: _229  and  _230
REMARK   97  A    between atoms: _230  and  _231
REMARK   98  A    between atoms: _231  and  _232
REMARK   99  A    between atoms: _241  and  _243
REMARK  100  A    between atoms: _243  and  _244
REMARK  101  A    between atoms: _243  and  _246
REMARK  102  A    between atoms: _246  and  _247
REMARK  103  A    between atoms: _247  and  _248
REMARK  104  A    between atoms: _248  and  _249
REMARK  105  A    between atoms: _258  and  _260
REMARK  106  A    between atoms: _260  and  _261
REMARK  107  A    between atoms: _260  and  _263
REMARK  108  A    between atoms: _263  and  _264
REMARK  109  A    between atoms: _267  and  _269
REMARK  110  A    between atoms: _269  and  _270
REMARK  111  A    between atoms: _269  and  _272
REMARK  112  A    between atoms: _272  and  _273
REMARK  113  A    between atoms: _276  and  _278
REMARK  114  A    between atoms: _278  and  _279
REMARK  115  A    between atoms: _278  and  _281
REMARK  116  A    between atoms: _281  and  _282
REMARK  117  A    between atoms: _285  and  _287
REMARK  118  A    between atoms: _287  and  _288
REMARK  119  A    between atoms: _287  and  _290
REMARK  120  A    between atoms: _290  and  _291
REMARK  121  A    between atoms: _294  and  _296
REMARK  122  A    between atoms: _296  and  _297
REMARK  123  A    between atoms: _299  and  _301
REMARK  124  A    between atoms: _301  and  _302
REMARK  125  A    between atoms: _305  and  _307
REMARK  126  A    between atoms: _307  and  _308
REMARK  127  A    between atoms: _307  and  _310
REMARK  128  A    between atoms: _310  and  _311
REMARK  129  A    between atoms: _314  and  _316
REMARK  130  A    between atoms: _316  and  _317
REMARK  131  A    between atoms: _316  and  _319
REMARK  132  A    between atoms: _319  and  _320
REMARK  133  A    between atoms: _323  and  _325
REMARK  134  A    between atoms: _325  and  _326
REMARK  135  A    between atoms: _325  and  _328
REMARK  136  A    between atoms: _328  and  _329
REMARK  137  A    between atoms: _332  and  _334
REMARK  138  A    between atoms: _334  and  _335
REMARK  139  A    between atoms: _334  and  _337
REMARK  140  A    between atoms: _340  and  _342
REMARK  141  A    between atoms: _342  and  _343
REMARK  142  A    between atoms: _342  and  _345
REMARK  143  A    between atoms: _345  and  _346
REMARK  144  A    between atoms: _346  and  _347
REMARK  145  A    between atoms: _347  and  _348
REMARK  146  A    between atoms: _348  and  _349
REMARK  147  A    between atoms: _353  and  _355
REMARK  148  A    between atoms: _355  and  _356
REMARK  149  A    between atoms: _355  and  _358
REMARK  150  A    between atoms: _358  and  _359
REMARK  151  A    between atoms: _359  and  _360
REMARK  152  A    between atoms: _362  and  _364
REMARK  153  A    between atoms: _364  and  _365
REMARK  154  A    between atoms: _364  and  _367
REMARK  155  A    between atoms: _367  and  _368
REMARK  156  A    between atoms: _371  and  _373
REMARK  157  A    between atoms: _373  and  _374
REMARK  158  A    between atoms: _376  and  _378
REMARK  159  A    between atoms: _378  and  _379
REMARK  160  A    between atoms: _381  and  _383
REMARK  161  A    between atoms: _383  and  _384
REMARK  162  A    between atoms: _383  and  _386
REMARK  163  A    between atoms: _386  and  _387
REMARK  164  A    between atoms: _390  and  _392
REMARK  165  A    between atoms: _392  and  _393
REMARK  166  A    between atoms: _395  and  _397
REMARK  167  A    between atoms: _397  and  _398
REMARK  168  A    between atoms: _400  and  _402
REMARK  169  A    between atoms: _402  and  _403
REMARK  170  A    between atoms: _402  and  _405
REMARK  171  A    between atoms: _405  and  _406
REMARK  172  A    between atoms: _412  and  _414
REMARK  173  A    between atoms: _414  and  _415
REMARK  174  A    between atoms: _414  and  _417
REMARK  175  A    between atoms: _417  and  _418
REMARK  176  A    between atoms: _421  and  _423
REMARK  177  A    between atoms: _423  and  _424
REMARK  178  A    between atoms: _423  and  _426
REMARK  179  A    between atoms: _429  and  _431
REMARK  180  A    between atoms: _431  and  _432
REMARK  181  A    between atoms: _431  and  _434
REMARK  182  A    between atoms: _434  and  _435
REMARK  183  A    between atoms: _438  and  _440
REMARK  184  A    between atoms: _440  and  _441
REMARK  185  A    between atoms: _440  and  _443
REMARK  186  A    between atoms: _443  and  _444
REMARK  187  A    between atoms: _448  and  _449
REMARK  188  A    between atoms: _454  and  _456
REMARK  189  A    between atoms: _456  and  _457
REMARK  190  A    between atoms: _456  and  _459
REMARK  191  A    between atoms: _459  and  _460
REMARK  192  A    between atoms: _463  and  _465
REMARK  193  A    between atoms: _465  and  _466
REMARK  194  A    between atoms: _465  and  _468
REMARK  195  A    between atoms: _468  and  _469
REMARK  196  A    between atoms: _474  and  _476
REMARK  197  A    between atoms: _476  and  _477
REMARK  198  A    between atoms: _476  and  _479
REMARK  199  A    between atoms: _479  and  _480
REMARK  200  A    between atoms: _483  and  _485
REMARK  201  A    between atoms: _485  and  _486
REMARK  202  A    between atoms: _485  and  _488
REMARK  203  A    between atoms: _488  and  _489
REMARK  204  A    between atoms: _492  and  _494
REMARK  205  A    between atoms: _494  and  _495
REMARK  206  A    between atoms: _497  and  _499
REMARK  207  A    between atoms: _499  and  _500
REMARK  208  A    between atoms: _499  and  _502
REMARK  209  A    between atoms: _502  and  _503
REMARK  210  A    between atoms: _503  and  _504
REMARK  211  A    between atoms: _504  and  _505
REMARK  212  A    between atoms: _514  and  _516
REMARK  213  A    between atoms: _516  and  _517
REMARK  214  A    between atoms: _516  and  _519
REMARK  215  A    between atoms: _519  and  _520
REMARK                            x       y       z     vdW  Elec       q    Type
REMARK                         _______ _______ _______ _____ _____    ______ ____
ROOT
ATOM      1  C   ILE A   5     -16.917  17.133  21.404  0.00  0.00    +0.241 C 
ATOM      2  N   ILE A   6     -17.503  18.306  21.512  0.00  0.00    -0.297 N 
ATOM      3  H   ILE A   6     -17.996  18.504  22.406  0.00  0.00    +0.150 HD
ATOM      4  O   ILE A   5     -16.599  16.744  20.295  0.00  0.00    -0.273 OA
ENDROOT
BRANCH   2   5
ATOM      5  CA  ILE A   6     -17.528  19.354  20.500  0.00  0.00    +0.149 C 
BRANCH   5   6
ATOM      6  C   ILE A   6     -16.301  20.215  20.873  0.00  0.00    +0.241 C 
ATOM      7  O   ILE A   6     -16.315  20.587  22.056  0.00  0.00    -0.273 OA
ATOM      8  N   GLY A   7     -15.358  20.545  20.005  0.00  0.00    -0.295 N 
ATOM      9  H   GLY A   7     -15.523  20.357  18.996  0.00  0.00    +0.150 HD
BRANCH   8  10
ATOM     10  CA  GLY A   7     -14.091  21.165  20.406  0.00  0.00    +0.176 C 
BRANCH  10  11
ATOM     11  C   GLY A   7     -13.958  22.463  19.687  0.00  0.00    +0.243 C 
ATOM     12  N   ARG A   8     -12.843  23.150  19.775  0.00  0.00    -0.297 N 
ATOM     13  H   ARG A   8     -12.041  22.768  20.316  0.00  0.00    +0.150 HD
ATOM     14  O   GLY A   7     -14.937  22.804  19.040  0.00  0.00    -0.273 OA
BRANCH  12  15
ATOM     15  CA  ARG A   8     -12.724  24.450  19.116  0.00  0.00    +0.149 C 
BRANCH  15  16
ATOM     16  C   ARG A   8     -13.007  24.456  17.631  0.00  0.00    +0.241 C 
ATOM     17  O   ARG A   8     -13.552  25.465  17.143  0.00  0.00    -0.273 OA
ATOM     18  N   ASN A   9     -12.710  23.454  16.812  0.00  0.00    -0.298 N 
ATOM     19  H   ASN A   9     -12.218  22.605  17.156  0.00  0.00    +0.150 HD
BRANCH  18  20
ATOM     20  CA  ASN A   9     -13.101  23.588  15.400  0.00  0.00    +0.146 C 
BRANCH  20  21
ATOM     21  C   ASN A   9     -14.567  23.856  15.176  0.00  0.00    +0.227 C 
ATOM     22  O   ASN A   9     -14.908  24.556  14.202  0.00  0.00    -0.286 OA
ENDBRANCH  20  21
BRANCH  20  23
ATOM     23  CB  ASN A   9     -12.626  22.354  14.631  0.00  0.00    +0.112 C 
BRANCH  23  24
ATOM     24  CG  ASN A   9     -13.491  21.148  14.831  0.00  0.00    +0.222 C 
ATOM     25  OD1 ASN A   9     -13.840  20.925  15.991  0.00  0.00    -0.275 OA
ATOM     26  ND2 ASN A   9     -13.812  20.441  13.754  0.00  0.00    -0.329 N 
ATOM     27 HD21 ASN A   9     -14.419  19.602  13.845  0.00  0.00    +0.145 HD
ATOM     28 HD22 ASN A   9     -13.456  20.727  12.819  0.00  0.00    +0.145 HD
ENDBRANCH  23  24
ENDBRANCH  20  23
ENDBRANCH  18  20
ENDBRANCH  15  16
BRANCH  15  29
ATOM     29  CB  ARG A   8     -11.332  25.034  19.368  0.00  0.00    +0.033 C 
BRANCH  29  30
ATOM     30  CG  ARG A   8     -11.141  25.176  20.887  0.00  0.00    +0.045 C 
BRANCH  30  31
ATOM     31  CD  ARG A   8      -9.968  26.183  21.096  0.00  0.00    +0.174 C 
BRANCH  31  32
ATOM     32  NE  ARG A   8      -8.747  25.505  20.632  0.00  0.00    -0.265 N 
ATOM     33  HE  ARG A   8      -8.425  24.684  21.183  0.00  0.00    +0.259 HD
ATOM     34  CZ  ARG A   8      -8.020  25.843  19.577  0.00  0.00    +0.342 C 
ATOM     35  NH2 ARG A   8      -6.942  25.138  19.334  0.00  0.00    -0.292 N 
ATOM     36 HH21 ARG A   8      -6.686  24.347  19.959  0.00  0.00    +0.255 HD
ATOM     37 HH22 ARG A   8      -6.343  25.369  18.516  0.00  0.00    +0.255 HD
ATOM     38  NH1 ARG A   8      -8.454  26.852  18.849  0.00  0.00    -0.292 N 
ATOM     39 HH11 ARG A   8      -9.331  27.344  19.113  0.00  0.00    +0.255 HD
ATOM     40 HH12 ARG A   8      -7.919  27.156  18.011  0.00  0.00    +0.255 HD
ENDBRANCH  31  32
ENDBRANCH  30  31
ENDBRANCH  29  30
ENDBRANCH  15  29
ENDBRANCH  12  15
ENDBRANCH  10  11
ENDBRANCH   8  10
ENDBRANCH   5   6
BRANCH   5  41
ATOM     41  CB  ILE A   6     -18.673  20.370  20.609  0.00  0.00    +0.027 C 
ATOM     42  CG2 ILE A   6     -18.568  21.319  19.426  0.00  0.00    +0.002 C 
BRANCH  41  43
ATOM     43  CG1 ILE A   6     -20.054  19.762  20.545  0.00  0.00    +0.002 C 
ATOM     44  CD1 ILE A   6     -20.245  18.521  19.711  0.00  0.00    +0.000 C 
ENDBRANCH  41  43
ENDBRANCH   5  41
ENDBRANCH   2   5
BRANCH   1  45
ATOM     45  CA  ILE A   5     -16.684  16.274  22.676  0.00  0.00    +0.149 C 
BRANCH  45  48
ATOM     46  C   ASN A   4     -18.202  14.373  23.212  0.00  0.00    +0.241 C 
ATOM     47  O   ASN A   4     -18.750  14.882  24.205  0.00  0.00    -0.273 OA
ATOM     48  N   ILE A   5     -17.235  14.967  22.531  0.00  0.00    -0.297 N 
ATOM     49  H   ILE A   5     -16.812  14.392  21.774  0.00  0.00    +0.150 HD
BRANCH  46  50
ATOM     50  CA  ASN A   4     -18.696  12.971  22.806  0.00  0.00    +0.158 C 
BRANCH  50  52
ATOM     51  C   ASP A   3     -17.530  11.694  24.492  0.00  0.00    +0.241 C 
ATOM     52  N   ASN A   4     -18.653  12.233  24.066  0.00  0.00    -0.297 N 
ATOM     53  H   ASN A   4     -19.519  12.132  24.633  0.00  0.00    +0.150 HD
ATOM     54  O   ASP A   3     -16.488  11.666  23.862  0.00  0.00    -0.273 OA
BRANCH  51  55
ATOM     55  CA  ASP A   3     -17.569  11.069  25.882  0.00  0.00    +0.160 C 
BRANCH  55  58
ATOM     56  C   PRO A   2     -16.420   9.030  26.545  0.00  0.00    +0.241 C 
ATOM     57  O   PRO A   2     -17.567   8.575  26.735  0.00  0.00    -0.273 OA
ATOM     58  N   ASP A   3     -16.367  10.283  26.133  0.00  0.00    -0.297 N 
ATOM     59  H   ASP A   3     -15.437  10.724  25.983  0.00  0.00    +0.150 HD
BRANCH  56  62
ATOM     60  C   THR A   1     -14.364   8.168  24.395  0.00  0.00    +0.244 C 
ATOM     61  N   PRO A   2     -14.136   8.540  25.659  0.00  0.00    -0.272 N 
ATOM     62  CA  PRO A   2     -15.112   8.275  26.727  0.00  0.00    +0.152 C 
ATOM     63  CB  PRO A   2     -14.304   8.620  28.001  0.00  0.00    +0.031 C 
ATOM     64  CG  PRO A   2     -13.250   9.608  27.576  0.00  0.00    +0.024 C 
ATOM     65  CD  PRO A   2     -12.923   9.227  26.159  0.00  0.00    +0.094 C 
ATOM     66  O   THR A   1     -15.400   7.601  24.068  0.00  0.00    -0.273 OA
BRANCH  60  67
ATOM     67  CA  THR A   1     -13.282   8.482  23.373  0.00  0.00    +0.172 C 
BRANCH  67  68
ATOM     68  CB  THR A   1     -13.669   9.822  22.747  0.00  0.00    +0.135 C 
ATOM     69  CG2 THR A   1     -14.926   9.659  21.916  0.00  0.00    +0.034 C 
BRANCH  68  70
ATOM     70  OG1 THR A   1     -13.894  10.790  23.776  0.00  0.00    -0.383 OA
ATOM     71  HG1 THR A   1     -14.626  10.479  24.365  0.00  0.00    +0.210 HD
ENDBRANCH  68  70
ENDBRANCH  67  68
BRANCH  67  72
ATOM     72  N   THR A   1     -13.265   7.482  22.328  0.00  0.00    -0.236 NA
ATOM     73  H   THR A   1     -13.912   7.631  21.527  0.00  0.00    +0.142 HD
ENDBRANCH  67  72
ENDBRANCH  60  67
ENDBRANCH  56  62
ENDBRANCH  55  58
BRANCH  55  74
ATOM     74  CB  ASP A   3     -17.641  12.310  26.788  0.00  0.00    +0.143 C 
BRANCH  74  75
ATOM     75  CG  ASP A   3     -18.328  11.922  28.082  0.00  0.00    +0.367 C 
ATOM     76  OD2 ASP A   3     -17.544  11.746  29.056  0.00  0.00    -0.246 OA
ATOM     77  OD1 ASP A   3     -19.584  11.797  28.001  0.00  0.00    -0.246 OA
ENDBRANCH  74  75
ENDBRANCH  55  74
ENDBRANCH  51  55
ENDBRANCH  50  52
BRANCH  50  78
ATOM     78  CB  ASN A   4     -20.150  13.112  22.384  0.00  0.00    +0.114 C 
BRANCH  78  79
ATOM     79  CG  ASN A   4     -20.867  11.834  22.024  0.00  0.00    +0.222 C 
ATOM     80  ND2 ASN A   4     -22.002  11.536  22.623  0.00  0.00    -0.329 N 
ATOM     81 HD21 ASN A   4     -22.392  12.174  23.346  0.00  0.00    +0.145 HD
ATOM     82 HD22 ASN A   4     -22.508  10.663  22.373  0.00  0.00    +0.145 HD
ATOM     83  OD1 ASN A   4     -20.339  11.129  21.156  0.00  0.00    -0.275 OA
ENDBRANCH  78  79
ENDBRANCH  50  78
ENDBRANCH  46  50
ENDBRANCH  45  48
BRANCH  45  84
ATOM     84  CB  ILE A   5     -15.136  16.269  22.735  0.00  0.00    +0.027 C 
ATOM     85  CG2 ILE A   5     -14.559  17.613  23.134  0.00  0.00    +0.002 C 
BRANCH  84  86
ATOM     86  CG1 ILE A   5     -14.461  15.296  23.694  0.00  0.00    +0.002 C 
ATOM     87  CD1 ILE A   5     -12.935  15.455  23.428  0.00  0.00    +0.000 C 
ENDBRANCH  84  86
ENDBRANCH  45  84
ENDBRANCH   1  45
TORSDOF 33
REMARK  Name = ../refined-set-2016/1gnm/1gnm_pocket.pdb
REMARK  215 active torsions:
REMARK  status: ('A' for Active; 'I' for Inactive)
REMARK    1  A    between atoms: _1  and  _3
REMARK    2  A    between atoms: _3  and  _4
REMARK    3  A    between atoms: _3  and  _6
REMARK    4  A    between atoms: _6  and  _7
REMARK    5  A    between atoms: _7  and  _8
REMARK    6  A    between atoms: _8  and  _9
REMARK    7  A    between atoms: _18  and  _20
REMARK    8  A    between atoms: _20  and  _21
REMARK    9  A    between atoms: _20  and  _23
REMARK   10  A    between atoms: _23  and  _24
REMARK   11  A    between atoms: _27  and  _29
REMARK   12  A    between atoms: _29  and  _30
REMARK   13  A    between atoms: _29  and  _32
REMARK   14  A    between atoms: _32  and  _33
REMARK   15  A    between atoms: _36  and  _38
REMARK   16  A    between atoms: _38  and  _39
REMARK   17  A    between atoms: _38  and  _41
REMARK   18  A    between atoms: _41  and  _42
REMARK   19  A    between atoms: _45  and  _47
REMARK   20  A    between atoms: _47  and  _48
REMARK   21  A    between atoms: _47  and  _50
REMARK   22  A    between atoms: _50  and  _51
REMARK   23  A    between atoms: _54  and  _56
REMARK   24  A    between atoms: _56  and  _57
REMARK   25  A    between atoms: _56  and  _59
REMARK   26  A    between atoms: _59  and  _60
REMARK   27  A    between atoms: _63  and  _65
REMARK   28  A    between atoms: _65  and  _66
REMARK   29  A    between atoms: _68  and  _70
REMARK   30  A    between atoms: _70  and  _71
REMARK   31  A    between atoms: _74  and  _76
REMARK   32  A    between atoms: _76  and  _77
REMARK   33  A    between atoms: _76  and  _79
REMARK   34  A    between atoms: _79  and  _80
REMARK   35  A    between atoms: _83  and  _85
REMARK   36  A    between atoms: _85  and  _86
REMARK   37  A    between atoms: _85  and  _88
REMARK   38  A    between atoms: _88  and  _89
REMARK   39  A    between atoms: _92  and  _94
REMARK   40  A    between atoms: _94  and  _95
REMARK   41  A    between atoms: _94  and  _97
REMARK   42  A    between atoms: _97  and  _98
REMARK   43  A    between atoms: _101  and  _103
REMARK   44  A    between atoms: _103  and  _104
REMARK   45  A    between atoms: _103  and  _106
REMARK   46  A    between atoms: _109  and  _111
REMARK   47  A    between atoms: _111  and  _112
REMARK   48  A    between atoms: _111  and  _114
REMARK   49  A    between atoms: _114  and  _115
REMARK   50  A    between atoms: _118  and  _120
REMARK   51  A    between atoms: _120  and  _121
REMARK   52  A    between atoms: _123  and  _125
REMARK   53  A    between atoms: _125  and  _126
REMARK   54  A    between atoms: _128  and  _130
REMARK   55  A    between atoms: _130  and  _131
REMARK   56  A    between atoms: _130  and  _133
REMARK   57  A    between atoms: _133  and  _134
REMARK   58  A    between atoms: _137  and  _139
REMARK   59  A    between atoms: _139  and  _140
REMARK   60  A    between atoms: _142  and  _144
REMARK   61  A    between atoms: _144  and  _145
REMARK   62  A    between atoms: _147  and  _149
REMARK   63  A    between atoms: _149  and  _150
REMARK   64  A    between atoms: _149  and  _152
REMARK   65  A    between atoms: _152  and  _153
REMARK   66  A    between atoms: _156  and  _158
REMARK   67  A    between atoms: _158  and  _159
REMARK   68  A    between atoms: _158  and  _161
REMARK   69  A    between atoms: _161  and  _162
REMARK   70  A    between atoms: _165  and  _167
REMARK   71  A    between atoms: _167  and  _168
REMARK   72  A    between atoms: _167  and  _170
REMARK   73  A    between atoms: _170  and  _171
REMARK   74  A    between atoms: _175  and  _176
REMARK   75  A    between atoms: _181  and  _183
REMARK   76  A    between atoms: _183  and  _184
REMARK   77  A    between atoms: _183  and  _186
REMARK   78  A    between atoms: _186  and  _187
REMARK   79  A    between atoms: _190  and  _192
REMARK   80  A    between atoms: _192  and  _193
REMARK   81  A    between atoms: _192  and  _195
REMARK   82  A    between atoms: _195  and  _196
REMARK   83  A    between atoms: _201  and  _203
REMARK   84  A    between atoms: _203  and  _204
REMARK   85  A    between atoms: _203  and  _206
REMARK   86  A    between atoms: _206  and  _207
REMARK   87  A    between atoms: _210  and  _212
REMARK   88  A    between atoms: _212  and  _213
REMARK   89  A    between atoms: _212  and  _215
REMARK   90  A    between atoms: _215  and  _216
REMARK   91  A    between atoms: _219  and  _221
REMARK   92  A    between atoms: _221  and  _222
REMARK   93  A    between atoms: _224  and  _226
REMARK   94  A    between atoms: _226  and  _227
REMARK   95  A    between atoms: _226  and  _229
REMARK   96  A    between atoms: _229  and  _230
REMARK   97  A    between atoms: _230  and  _231
REMARK   98  A    between atoms: _231  and  _232
REMARK   99  A    between atoms: _241  and  _243
REMARK  100  A    between atoms: _243  and  _244
REMARK  101  A    between atoms: _243  and  _246
REMARK  102  A    between atoms: _246  and  _247
REMARK  103  A    between atoms: _247  and  _248
REMARK  104  A    between atoms: _248  and  _249
REMARK  105  A    between atoms: _258  and  _260
REMARK  106  A    between atoms: _260  and  _261
REMARK  107  A    between atoms: _260  and  _263
REMARK  108  A    between atoms: _263  and  _264
REMARK  109  A    between atoms: _267  and  _269
REMARK  110  A    between atoms: _269  and  _270
REMARK  111  A    between atoms: _269  and  _272
REMARK  112  A    between atoms: _272  and  _273
REMARK  113  A    between atoms: _276  and  _278
REMARK  114  A    between atoms: _278  and  _279
REMARK  115  A    between atoms: _278  and  _281
REMARK  116  A    between atoms: _281  and  _282
REMARK  117  A    between atoms: _285  and  _287
REMARK  118  A    between atoms: _287  and  _288
REMARK  119  A    between atoms: _287  and  _290
REMARK  120  A    between atoms: _290  and  _291
REMARK  121  A    between atoms: _294  and  _296
REMARK  122  A    between atoms: _296  and  _297
REMARK  123  A    between atoms: _299  and  _301
REMARK  124  A    between atoms: _301  and  _302
REMARK  125  A    between atoms: _305  and  _307
REMARK  126  A    between atoms: _307  and  _308
REMARK  127  A    between atoms: _307  and  _310
REMARK  128  A    between atoms: _310  and  _311
REMARK  129  A    between atoms: _314  and  _316
REMARK  130  A    between atoms: _316  and  _317
REMARK  131  A    between atoms: _316  and  _319
REMARK  132  A    between atoms: _319  and  _320
REMARK  133  A    between atoms: _323  and  _325
REMARK  134  A    between atoms: _325  and  _326
REMARK  135  A    between atoms: _325  and  _328
REMARK  136  A    between atoms: _328  and  _329
REMARK  137  A    between atoms: _332  and  _334
REMARK  138  A    between atoms: _334  and  _335
REMARK  139  A    between atoms: _334  and  _337
REMARK  140  A    between atoms: _340  and  _342
REMARK  141  A    between atoms: _342  and  _343
REMARK  142  A    between atoms: _342  and  _345
REMARK  143  A    between atoms: _345  and  _346
REMARK  144  A    between atoms: _346  and  _347
REMARK  145  A    between atoms: _347  and  _348
REMARK  146  A    between atoms: _348  and  _349
REMARK  147  A    between atoms: _353  and  _355
REMARK  148  A    between atoms: _355  and  _356
REMARK  149  A    between atoms: _355  and  _358
REMARK  150  A    between atoms: _358  and  _359
REMARK  151  A    between atoms: _359  and  _360
REMARK  152  A    between atoms: _362  and  _364
REMARK  153  A    between atoms: _364  and  _365
REMARK  154  A    between atoms: _364  and  _367
REMARK  155  A    between atoms: _367  and  _368
REMARK  156  A    between atoms: _371  and  _373
REMARK  157  A    between atoms: _373  and  _374
REMARK  158  A    between atoms: _376  and  _378
REMARK  159  A    between atoms: _378  and  _379
REMARK  160  A    between atoms: _381  and  _383
REMARK  161  A    between atoms: _383  and  _384
REMARK  162  A    between atoms: _383  and  _386
REMARK  163  A    between atoms: _386  and  _387
REMARK  164  A    between atoms: _390  and  _392
REMARK  165  A    between atoms: _392  and  _393
REMARK  166  A    between atoms: _395  and  _397
REMARK  167  A    between atoms: _397  and  _398
REMARK  168  A    between atoms: _400  and  _402
REMARK  169  A    between atoms: _402  and  _403
REMARK  170  A    between atoms: _402  and  _405
REMARK  171  A    between atoms: _405  and  _406
REMARK  172  A    between atoms: _412  and  _414
REMARK  173  A    between atoms: _414  and  _415
REMARK  174  A    between atoms: _414  and  _417
REMARK  175  A    between atoms: _417  and  _418
REMARK  176  A    between atoms: _421  and  _423
REMARK  177  A    between atoms: _423  and  _424
REMARK  178  A    between atoms: _423  and  _426
REMARK  179  A    between atoms: _429  and  _431
REMARK  180  A    between atoms: _431  and  _432
REMARK  181  A    between atoms: _431  and  _434
REMARK  182  A    between atoms: _434  and  _435
REMARK  183  A    between atoms: _438  and  _440
REMARK  184  A    between atoms: _440  and  _441
REMARK  185  A    between atoms: _440  and  _443
REMARK  186  A    between atoms: _443  and  _444
REMARK  187  A    between atoms: _448  and  _449
REMARK  188  A    between atoms: _454  and  _456
REMARK  189  A    between atoms: _456  and  _457
REMARK  190  A    between atoms: _456  and  _459
REMARK  191  A    between atoms: _459  and  _460
REMARK  192  A    between atoms: _463  and  _465
REMARK  193  A    between atoms: _465  and  _466
REMARK  194  A    between atoms: _465  and  _468
REMARK  195  A    between atoms: _468  and  _469
REMARK  196  A    between atoms: _474  and  _476
REMARK  197  A    between atoms: _476  and  _477
REMARK  198  A    between atoms: _476  and  _479
REMARK  199  A    between atoms: _479  and  _480
REMARK  200  A    between atoms: _483  and  _485
REMARK  201  A    between atoms: _485  and  _486
REMARK  202  A    between atoms: _485  and  _488
REMARK  203  A    between atoms: _488  and  _489
REMARK  204  A    between atoms: _492  and  _494
REMARK  205  A    between atoms: _494  and  _495
REMARK  206  A    between atoms: _497  and  _499
REMARK  207  A    between atoms: _499  and  _500
REMARK  208  A    between atoms: _499  and  _502
REMARK  209  A    between atoms: _502  and  _503
REMARK  210  A    between atoms: _503  and  _504
REMARK  211  A    between atoms: _504  and  _505
REMARK  212  A    between atoms: _514  and  _516
REMARK  213  A    between atoms: _516  and  _517
REMARK  214  A    between atoms: _516  and  _519
REMARK  215  A    between atoms: _519  and  _520
REMARK                            x       y       z     vdW  Elec       q    Type
REMARK                         _______ _______ _______ _____ _____    ______ ____
ROOT
ATOM      1  O   HOH     1     -17.103  19.241  32.477  0.00  0.00    +0.000 OA
ENDROOT
TORSDOF 0
REMARK  Name = ../refined-set-2016/1gnm/1gnm_pocket.pdb
REMARK  215 active torsions:
REMARK  status: ('A' for Active; 'I' for Inactive)
REMARK    1  A    between atoms: _1  and  _3
REMARK    2  A    between atoms: _3  and  _4
REMARK    3  A    between atoms: _3  and  _6
REMARK    4  A    between atoms: _6  and  _7
REMARK    5  A    between atoms: _7  and  _8
REMARK    6  A    between atoms: _8  and  _9
REMARK    7  A    between atoms: _18  and  _20
REMARK    8  A    between atoms: _20  and  _21
REMARK    9  A    between atoms: _20  and  _23
REMARK   10  A    between atoms: _23  and  _24
REMARK   11  A    between atoms: _27  and  _29
REMARK   12  A    between atoms: _29  and  _30
REMARK   13  A    between atoms: _29  and  _32
REMARK   14  A    between atoms: _32  and  _33
REMARK   15  A    between atoms: _36  and  _38
REMARK   16  A    between atoms: _38  and  _39
REMARK   17  A    between atoms: _38  and  _41
REMARK   18  A    between atoms: _41  and  _42
REMARK   19  A    between atoms: _45  and  _47
REMARK   20  A    between atoms: _47  and  _48
REMARK   21  A    between atoms: _47  and  _50
REMARK   22  A    between atoms: _50  and  _51
REMARK   23  A    between atoms: _54  and  _56
REMARK   24  A    between atoms: _56  and  _57
REMARK   25  A    between atoms: _56  and  _59
REMARK   26  A    between atoms: _59  and  _60
REMARK   27  A    between atoms: _63  and  _65
REMARK   28  A    between atoms: _65  and  _66
REMARK   29  A    between atoms: _68  and  _70
REMARK   30  A    between atoms: _70  and  _71
REMARK   31  A    between atoms: _74  and  _76
REMARK   32  A    between atoms: _76  and  _77
REMARK   33  A    between atoms: _76  and  _79
REMARK   34  A    between atoms: _79  and  _80
REMARK   35  A    between atoms: _83  and  _85
REMARK   36  A    between atoms: _85  and  _86
REMARK   37  A    between atoms: _85  and  _88
REMARK   38  A    between atoms: _88  and  _89
REMARK   39  A    between atoms: _92  and  _94
REMARK   40  A    between atoms: _94  and  _95
REMARK   41  A    between atoms: _94  and  _97
REMARK   42  A    between atoms: _97  and  _98
REMARK   43  A    between atoms: _101  and  _103
REMARK   44  A    between atoms: _103  and  _104
REMARK   45  A    between atoms: _103  and  _106
REMARK   46  A    between atoms: _109  and  _111
REMARK   47  A    between atoms: _111  and  _112
REMARK   48  A    between atoms: _111  and  _114
REMARK   49  A    between atoms: _114  and  _115
REMARK   50  A    between atoms: _118  and  _120
REMARK   51  A    between atoms: _120  and  _121
REMARK   52  A    between atoms: _123  and  _125
REMARK   53  A    between atoms: _125  and  _126
REMARK   54  A    between atoms: _128  and  _130
REMARK   55  A    between atoms: _130  and  _131
REMARK   56  A    between atoms: _130  and  _133
REMARK   57  A    between atoms: _133  and  _134
REMARK   58  A    between atoms: _137  and  _139
REMARK   59  A    between atoms: _139  and  _140
REMARK   60  A    between atoms: _142  and  _144
REMARK   61  A    between atoms: _144  and  _145
REMARK   62  A    between atoms: _147  and  _149
REMARK   63  A    between atoms: _149  and  _150
REMARK   64  A    between atoms: _149  and  _152
REMARK   65  A    between atoms: _152  and  _153
REMARK   66  A    between atoms: _156  and  _158
REMARK   67  A    between atoms: _158  and  _159
REMARK   68  A    between atoms: _158  and  _161
REMARK   69  A    between atoms: _161  and  _162
REMARK   70  A    between atoms: _165  and  _167
REMARK   71  A    between atoms: _167  and  _168
REMARK   72  A    between atoms: _167  and  _170
REMARK   73  A    between atoms: _170  and  _171
REMARK   74  A    between atoms: _175  and  _176
REMARK   75  A    between atoms: _181  and  _183
REMARK   76  A    between atoms: _183  and  _184
REMARK   77  A    between atoms: _183  and  _186
REMARK   78  A    between atoms: _186  and  _187
REMARK   79  A    between atoms: _190  and  _192
REMARK   80  A    between atoms: _192  and  _193
REMARK   81  A    between atoms: _192  and  _195
REMARK   82  A    between atoms: _195  and  _196
REMARK   83  A    between atoms: _201  and  _203
REMARK   84  A    between atoms: _203  and  _204
REMARK   85  A    between atoms: _203  and  _206
REMARK   86  A    between atoms: _206  and  _207
REMARK   87  A    between atoms: _210  and  _212
REMARK   88  A    between atoms: _212  and  _213
REMARK   89  A    between atoms: _212  and  _215
REMARK   90  A    between atoms: _215  and  _216
REMARK   91  A    between atoms: _219  and  _221
REMARK   92  A    between atoms: _221  and  _222
REMARK   93  A    between atoms: _224  and  _226
REMARK   94  A    between atoms: _226  and  _227
REMARK   95  A    between atoms: _226  and  _229
REMARK   96  A    between atoms: _229  and  _230
REMARK   97  A    between atoms: _230  and  _231
REMARK   98  A    between atoms: _231  and  _232
REMARK   99  A    between atoms: _241  and  _243
REMARK  100  A    between atoms: _243  and  _244
REMARK  101  A    between atoms: _243  and  _246
REMARK  102  A    between atoms: _246  and  _247
REMARK  103  A    between atoms: _247  and  _248
REMARK  104  A    between atoms: _248  and  _249
REMARK  105  A    between atoms: _258  and  _260
REMARK  106  A    between atoms: _260  and  _261
REMARK  107  A    between atoms: _260  and  _263
REMARK  108  A    between atoms: _263  and  _264
REMARK  109  A    between atoms: _267  and  _269
REMARK  110  A    between atoms: _269  and  _270
REMARK  111  A    between atoms: _269  and  _272
REMARK  112  A    between atoms: _272  and  _273
REMARK  113  A    between atoms: _276  and  _278
REMARK  114  A    between atoms: _278  and  _279
REMARK  115  A    between atoms: _278  and  _281
REMARK  116  A    between atoms: _281  and  _282
REMARK  117  A    between atoms: _285  and  _287
REMARK  118  A    between atoms: _287  and  _288
REMARK  119  A    between atoms: _287  and  _290
REMARK  120  A    between atoms: _290  and  _291
REMARK  121  A    between atoms: _294  and  _296
REMARK  122  A    between atoms: _296  and  _297
REMARK  123  A    between atoms: _299  and  _301
REMARK  124  A    between atoms: _301  and  _302
REMARK  125  A    between atoms: _305  and  _307
REMARK  126  A    between atoms: _307  and  _308
REMARK  127  A    between atoms: _307  and  _310
REMARK  128  A    between atoms: _310  and  _311
REMARK  129  A    between atoms: _314  and  _316
REMARK  130  A    between atoms: _316  and  _317
REMARK  131  A    between atoms: _316  and  _319
REMARK  132  A    between atoms: _319  and  _320
REMARK  133  A    between atoms: _323  and  _325
REMARK  134  A    between atoms: _325  and  _326
REMARK  135  A    between atoms: _325  and  _328
REMARK  136  A    between atoms: _328  and  _329
REMARK  137  A    between atoms: _332  and  _334
REMARK  138  A    between atoms: _334  and  _335
REMARK  139  A    between atoms: _334  and  _337
REMARK  140  A    between atoms: _340  and  _342
REMARK  141  A    between atoms: _342  and  _343
REMARK  142  A    between atoms: _342  and  _345
REMARK  143  A    between atoms: _345  and  _346
REMARK  144  A    between atoms: _346  and  _347
REMARK  145  A    between atoms: _347  and  _348
REMARK  146  A    between atoms: _348  and  _349
REMARK  147  A    between atoms: _353  and  _355
REMARK  148  A    between atoms: _355  and  _356
REMARK  149  A    between atoms: _355  and  _358
REMARK  150  A    between atoms: _358  and  _359
REMARK  151  A    between atoms: _359  and  _360
REMARK  152  A    between atoms: _362  and  _364
REMARK  153  A    between atoms: _364  and  _365
REMARK  154  A    between atoms: _364  and  _367
REMARK  155  A    between atoms: _367  and  _368
REMARK  156  A    between atoms: _371  and  _373
REMARK  157  A    between atoms: _373  and  _374
REMARK  158  A    between atoms: _376  and  _378
REMARK  159  A    between atoms: _378  and  _379
REMARK  160  A    between atoms: _381  and  _383
REMARK  161  A    between atoms: _383  and  _384
REMARK  162  A    between atoms: _383  and  _386
REMARK  163  A    between atoms: _386  and  _387
REMARK  164  A    between atoms: _390  and  _392
REMARK  165  A    between atoms: _392  and  _393
REMARK  166  A    between atoms: _395  and  _397
REMARK  167  A    between atoms: _397  and  _398
REMARK  168  A    between atoms: _400  and  _402
REMARK  169  A    between atoms: _402  and  _403
REMARK  170  A    between atoms: _402  and  _405
REMARK  171  A    between atoms: _405  and  _406
REMARK  172  A    between atoms: _412  and  _414
REMARK  173  A    between atoms: _414  and  _415
REMARK  174  A    between atoms: _414  and  _417
REMARK  175  A    between atoms: _417  and  _418
REMARK  176  A    between atoms: _421  and  _423
REMARK  177  A    between atoms: _423  and  _424
REMARK  178  A    between atoms: _423  and  _426
REMARK  179  A    between atoms: _429  and  _431
REMARK  180  A    between atoms: _431  and  _432
REMARK  181  A    between atoms: _431  and  _434
REMARK  182  A    between atoms: _434  and  _435
REMARK  183  A    between atoms: _438  and  _440
REMARK  184  A    between atoms: _440  and  _441
REMARK  185  A    between atoms: _440  and  _443
REMARK  186  A    between atoms: _443  and  _444
REMARK  187  A    between atoms: _448  and  _449
REMARK  188  A    between atoms: _454  and  _456
REMARK  189  A    between atoms: _456  and  _457
REMARK  190  A    between atoms: _456  and  _459
REMARK  191  A    between atoms: _459  and  _460
REMARK  192  A    between atoms: _463  and  _465
REMARK  193  A    between atoms: _465  and  _466
REMARK  194  A    between atoms: _465  and  _468
REMARK  195  A    between atoms: _468  and  _469
REMARK  196  A    between atoms: _474  and  _476
REMARK  197  A    between atoms: _476  and  _477
REMARK  198  A    between atoms: _476  and  _479
REMARK  199  A    between atoms: _479  and  _480
REMARK  200  A    between atoms: _483  and  _485
REMARK  201  A    between atoms: _485  and  _486
REMARK  202  A    between atoms: _485  and  _488
REMARK  203  A    between atoms: _488  and  _489
REMARK  204  A    between atoms: _492  and  _494
REMARK  205  A    between atoms: _494  and  _495
REMARK  206  A    between atoms: _497  and  _499
REMARK  207  A    between atoms: _499  and  _500
REMARK  208  A    between atoms: _499  and  _502
REMARK  209  A    between atoms: _502  and  _503
REMARK  210  A    between atoms: _503  and  _504
REMARK  211  A    between atoms: _504  and  _505
REMARK  212  A    between atoms: _514  and  _516
REMARK  213  A    between atoms: _516  and  _517
REMARK  214  A    between atoms: _516  and  _519
REMARK  215  A    between atoms: _519  and  _520
REMARK                            x       y       z     vdW  Elec       q    Type
REMARK                         _______ _______ _______ _____ _____    ______ ____
ROOT
ATOM      1  O   HOH     1     -15.784  16.424  32.356  0.00  0.00    +0.000 OA
ENDROOT
TORSDOF 0
REMARK  Name = ../refined-set-2016/1gnm/1gnm_pocket.pdb
REMARK  215 active torsions:
REMARK  status: ('A' for Active; 'I' for Inactive)
REMARK    1  A    between atoms: _1  and  _3
REMARK    2  A    between atoms: _3  and  _4
REMARK    3  A    between atoms: _3  and  _6
REMARK    4  A    between atoms: _6  and  _7
REMARK    5  A    between atoms: _7  and  _8
REMARK    6  A    between atoms: _8  and  _9
REMARK    7  A    between atoms: _18  and  _20
REMARK    8  A    between atoms: _20  and  _21
REMARK    9  A    between atoms: _20  and  _23
REMARK   10  A    between atoms: _23  and  _24
REMARK   11  A    between atoms: _27  and  _29
REMARK   12  A    between atoms: _29  and  _30
REMARK   13  A    between atoms: _29  and  _32
REMARK   14  A    between atoms: _32  and  _33
REMARK   15  A    between atoms: _36  and  _38
REMARK   16  A    between atoms: _38  and  _39
REMARK   17  A    between atoms: _38  and  _41
REMARK   18  A    between atoms: _41  and  _42
REMARK   19  A    between atoms: _45  and  _47
REMARK   20  A    between atoms: _47  and  _48
REMARK   21  A    between atoms: _47  and  _50
REMARK   22  A    between atoms: _50  and  _51
REMARK   23  A    between atoms: _54  and  _56
REMARK   24  A    between atoms: _56  and  _57
REMARK   25  A    between atoms: _56  and  _59
REMARK   26  A    between atoms: _59  and  _60
REMARK   27  A    between atoms: _63  and  _65
REMARK   28  A    between atoms: _65  and  _66
REMARK   29  A    between atoms: _68  and  _70
REMARK   30  A    between atoms: _70  and  _71
REMARK   31  A    between atoms: _74  and  _76
REMARK   32  A    between atoms: _76  and  _77
REMARK   33  A    between atoms: _76  and  _79
REMARK   34  A    between atoms: _79  and  _80
REMARK   35  A    between atoms: _83  and  _85
REMARK   36  A    between atoms: _85  and  _86
REMARK   37  A    between atoms: _85  and  _88
REMARK   38  A    between atoms: _88  and  _89
REMARK   39  A    between atoms: _92  and  _94
REMARK   40  A    between atoms: _94  and  _95
REMARK   41  A    between atoms: _94  and  _97
REMARK   42  A    between atoms: _97  and  _98
REMARK   43  A    between atoms: _101  and  _103
REMARK   44  A    between atoms: _103  and  _104
REMARK   45  A    between atoms: _103  and  _106
REMARK   46  A    between atoms: _109  and  _111
REMARK   47  A    between atoms: _111  and  _112
REMARK   48  A    between atoms: _111  and  _114
REMARK   49  A    between atoms: _114  and  _115
REMARK   50  A    between atoms: _118  and  _120
REMARK   51  A    between atoms: _120  and  _121
REMARK   52  A    between atoms: _123  and  _125
REMARK   53  A    between atoms: _125  and  _126
REMARK   54  A    between atoms: _128  and  _130
REMARK   55  A    between atoms: _130  and  _131
REMARK   56  A    between atoms: _130  and  _133
REMARK   57  A    between atoms: _133  and  _134
REMARK   58  A    between atoms: _137  and  _139
REMARK   59  A    between atoms: _139  and  _140
REMARK   60  A    between atoms: _142  and  _144
REMARK   61  A    between atoms: _144  and  _145
REMARK   62  A    between atoms: _147  and  _149
REMARK   63  A    between atoms: _149  and  _150
REMARK   64  A    between atoms: _149  and  _152
REMARK   65  A    between atoms: _152  and  _153
REMARK   66  A    between atoms: _156  and  _158
REMARK   67  A    between atoms: _158  and  _159
REMARK   68  A    between atoms: _158  and  _161
REMARK   69  A    between atoms: _161  and  _162
REMARK   70  A    between atoms: _165  and  _167
REMARK   71  A    between atoms: _167  and  _168
REMARK   72  A    between atoms: _167  and  _170
REMARK   73  A    between atoms: _170  and  _171
REMARK   74  A    between atoms: _175  and  _176
REMARK   75  A    between atoms: _181  and  _183
REMARK   76  A    between atoms: _183  and  _184
REMARK   77  A    between atoms: _183  and  _186
REMARK   78  A    between atoms: _186  and  _187
REMARK   79  A    between atoms: _190  and  _192
REMARK   80  A    between atoms: _192  and  _193
REMARK   81  A    between atoms: _192  and  _195
REMARK   82  A    between atoms: _195  and  _196
REMARK   83  A    between atoms: _201  and  _203
REMARK   84  A    between atoms: _203  and  _204
REMARK   85  A    between atoms: _203  and  _206
REMARK   86  A    between atoms: _206  and  _207
REMARK   87  A    between atoms: _210  and  _212
REMARK   88  A    between atoms: _212  and  _213
REMARK   89  A    between atoms: _212  and  _215
REMARK   90  A    between atoms: _215  and  _216
REMARK   91  A    between atoms: _219  and  _221
REMARK   92  A    between atoms: _221  and  _222
REMARK   93  A    between atoms: _224  and  _226
REMARK   94  A    between atoms: _226  and  _227
REMARK   95  A    between atoms: _226  and  _229
REMARK   96  A    between atoms: _229  and  _230
REMARK   97  A    between atoms: _230  and  _231
REMARK   98  A    between atoms: _231  and  _232
REMARK   99  A    between atoms: _241  and  _243
REMARK  100  A    between atoms: _243  and  _244
REMARK  101  A    between atoms: _243  and  _246
REMARK  102  A    between atoms: _246  and  _247
REMARK  103  A    between atoms: _247  and  _248
REMARK  104  A    between atoms: _248  and  _249
REMARK  105  A    between atoms: _258  and  _260
REMARK  106  A    between atoms: _260  and  _261
REMARK  107  A    between atoms: _260  and  _263
REMARK  108  A    between atoms: _263  and  _264
REMARK  109  A    between atoms: _267  and  _269
REMARK  110  A    between atoms: _269  and  _270
REMARK  111  A    between atoms: _269  and  _272
REMARK  112  A    between atoms: _272  and  _273
REMARK  113  A    between atoms: _276  and  _278
REMARK  114  A    between atoms: _278  and  _279
REMARK  115  A    between atoms: _278  and  _281
REMARK  116  A    between atoms: _281  and  _282
REMARK  117  A    between atoms: _285  and  _287
REMARK  118  A    between atoms: _287  and  _288
REMARK  119  A    between atoms: _287  and  _290
REMARK  120  A    between atoms: _290  and  _291
REMARK  121  A    between atoms: _294  and  _296
REMARK  122  A    between atoms: _296  and  _297
REMARK  123  A    between atoms: _299  and  _301
REMARK  124  A    between atoms: _301  and  _302
REMARK  125  A    between atoms: _305  and  _307
REMARK  126  A    between atoms: _307  and  _308
REMARK  127  A    between atoms: _307  and  _310
REMARK  128  A    between atoms: _310  and  _311
REMARK  129  A    between atoms: _314  and  _316
REMARK  130  A    between atoms: _316  and  _317
REMARK  131  A    between atoms: _316  and  _319
REMARK  132  A    between atoms: _319  and  _320
REMARK  133  A    between atoms: _323  and  _325
REMARK  134  A    between atoms: _325  and  _326
REMARK  135  A    between atoms: _325  and  _328
REMARK  136  A    between atoms: _328  and  _329
REMARK  137  A    between atoms: _332  and  _334
REMARK  138  A    between atoms: _334  and  _335
REMARK  139  A    between atoms: _334  and  _337
REMARK  140  A    between atoms: _340  and  _342
REMARK  141  A    between atoms: _342  and  _343
REMARK  142  A    between atoms: _342  and  _345
REMARK  143  A    between atoms: _345  and  _346
REMARK  144  A    between atoms: _346  and  _347
REMARK  145  A    between atoms: _347  and  _348
REMARK  146  A    between atoms: _348  and  _349
REMARK  147  A    between atoms: _353  and  _355
REMARK  148  A    between atoms: _355  and  _356
REMARK  149  A    between atoms: _355  and  _358
REMARK  150  A    between atoms: _358  and  _359
REMARK  151  A    between atoms: _359  and  _360
REMARK  152  A    between atoms: _362  and  _364
REMARK  153  A    between atoms: _364  and  _365
REMARK  154  A    between atoms: _364  and  _367
REMARK  155  A    between atoms: _367  and  _368
REMARK  156  A    between atoms: _371  and  _373
REMARK  157  A    between atoms: _373  and  _374
REMARK  158  A    between atoms: _376  and  _378
REMARK  159  A    between atoms: _378  and  _379
REMARK  160  A    between atoms: _381  and  _383
REMARK  161  A    between atoms: _383  and  _384
REMARK  162  A    between atoms: _383  and  _386
REMARK  163  A    between atoms: _386  and  _387
REMARK  164  A    between atoms: _390  and  _392
REMARK  165  A    between atoms: _392  and  _393
REMARK  166  A    between atoms: _395  and  _397
REMARK  167  A    between atoms: _397  and  _398
REMARK  168  A    between atoms: _400  and  _402
REMARK  169  A    between atoms: _402  and  _403
REMARK  170  A    between atoms: _402  and  _405
REMARK  171  A    between atoms: _405  and  _406
REMARK  172  A    between atoms: _412  and  _414
REMARK  173  A    between atoms: _414  and  _415
REMARK  174  A    between atoms: _414  and  _417
REMARK  175  A    between atoms: _417  and  _418
REMARK  176  A    between atoms: _421  and  _423
REMARK  177  A    between atoms: _423  and  _424
REMARK  178  A    between atoms: _423  and  _426
REMARK  179  A    between atoms: _429  and  _431
REMARK  180  A    between atoms: _431  and  _432
REMARK  181  A    between atoms: _431  and  _434
REMARK  182  A    between atoms: _434  and  _435
REMARK  183  A    between atoms: _438  and  _440
REMARK  184  A    between atoms: _440  and  _441
REMARK  185  A    between atoms: _440  and  _443
REMARK  186  A    between atoms: _443  and  _444
REMARK  187  A    between atoms: _448  and  _449
REMARK  188  A    between atoms: _454  and  _456
REMARK  189  A    between atoms: _456  and  _457
REMARK  190  A    between atoms: _456  and  _459
REMARK  191  A    between atoms: _459  and  _460
REMARK  192  A    between atoms: _463  and  _465
REMARK  193  A    between atoms: _465  and  _466
REMARK  194  A    between atoms: _465  and  _468
REMARK  195  A    between atoms: _468  and  _469
REMARK  196  A    between atoms: _474  and  _476
REMARK  197  A    between atoms: _476  and  _477
REMARK  198  A    between atoms: _476  and  _479
REMARK  199  A    between atoms: _479  and  _480
REMARK  200  A    between atoms: _483  and  _485
REMARK  201  A    between atoms: _485  and  _486
REMARK  202  A    between atoms: _485  and  _488
REMARK  203  A    between atoms: _488  and  _489
REMARK  204  A    between atoms: _492  and  _494
REMARK  205  A    between atoms: _494  and  _495
REMARK  206  A    between atoms: _497  and  _499
REMARK  207  A    between atoms: _499  and  _500
REMARK  208  A    between atoms: _499  and  _502
REMARK  209  A    between atoms: _502  and  _503
REMARK  210  A    between atoms: _503  and  _504
REMARK  211  A    between atoms: _504  and  _505
REMARK  212  A    between atoms: _514  and  _516
REMARK  213  A    between atoms: _516  and  _517
REMARK  214  A    between atoms: _516  and  _519
REMARK  215  A    between atoms: _519  and  _520
REMARK                            x       y       z     vdW  Elec       q    Type
REMARK                         _______ _______ _______ _____ _____    ______ ____
ROOT
ATOM      1  O   HOH     1       0.992  26.393  29.281  0.00  0.00    +0.000 OA
ENDROOT
TORSDOF 0
REMARK  Name = ../refined-set-2016/1gnm/1gnm_pocket.pdb
REMARK  215 active torsions:
REMARK  status: ('A' for Active; 'I' for Inactive)
REMARK    1  A    between atoms: _1  and  _3
REMARK    2  A    between atoms: _3  and  _4
REMARK    3  A    between atoms: _3  and  _6
REMARK    4  A    between atoms: _6  and  _7
REMARK    5  A    between atoms: _7  and  _8
REMARK    6  A    between atoms: _8  and  _9
REMARK    7  A    between atoms: _18  and  _20
REMARK    8  A    between atoms: _20  and  _21
REMARK    9  A    between atoms: _20  and  _23
REMARK   10  A    between atoms: _23  and  _24
REMARK   11  A    between atoms: _27  and  _29
REMARK   12  A    between atoms: _29  and  _30
REMARK   13  A    between atoms: _29  and  _32
REMARK   14  A    between atoms: _32  and  _33
REMARK   15  A    between atoms: _36  and  _38
REMARK   16  A    between atoms: _38  and  _39
REMARK   17  A    between atoms: _38  and  _41
REMARK   18  A    between atoms: _41  and  _42
REMARK   19  A    between atoms: _45  and  _47
REMARK   20  A    between atoms: _47  and  _48
REMARK   21  A    between atoms: _47  and  _50
REMARK   22  A    between atoms: _50  and  _51
REMARK   23  A    between atoms: _54  and  _56
REMARK   24  A    between atoms: _56  and  _57
REMARK   25  A    between atoms: _56  and  _59
REMARK   26  A    between atoms: _59  and  _60
REMARK   27  A    between atoms: _63  and  _65
REMARK   28  A    between atoms: _65  and  _66
REMARK   29  A    between atoms: _68  and  _70
REMARK   30  A    between atoms: _70  and  _71
REMARK   31  A    between atoms: _74  and  _76
REMARK   32  A    between atoms: _76  and  _77
REMARK   33  A    between atoms: _76  and  _79
REMARK   34  A    between atoms: _79  and  _80
REMARK   35  A    between atoms: _83  and  _85
REMARK   36  A    between atoms: _85  and  _86
REMARK   37  A    between atoms: _85  and  _88
REMARK   38  A    between atoms: _88  and  _89
REMARK   39  A    between atoms: _92  and  _94
REMARK   40  A    between atoms: _94  and  _95
REMARK   41  A    between atoms: _94  and  _97
REMARK   42  A    between atoms: _97  and  _98
REMARK   43  A    between atoms: _101  and  _103
REMARK   44  A    between atoms: _103  and  _104
REMARK   45  A    between atoms: _103  and  _106
REMARK   46  A    between atoms: _109  and  _111
REMARK   47  A    between atoms: _111  and  _112
REMARK   48  A    between atoms: _111  and  _114
REMARK   49  A    between atoms: _114  and  _115
REMARK   50  A    between atoms: _118  and  _120
REMARK   51  A    between atoms: _120  and  _121
REMARK   52  A    between atoms: _123  and  _125
REMARK   53  A    between atoms: _125  and  _126
REMARK   54  A    between atoms: _128  and  _130
REMARK   55  A    between atoms: _130  and  _131
REMARK   56  A    between atoms: _130  and  _133
REMARK   57  A    between atoms: _133  and  _134
REMARK   58  A    between atoms: _137  and  _139
REMARK   59  A    between atoms: _139  and  _140
REMARK   60  A    between atoms: _142  and  _144
REMARK   61  A    between atoms: _144  and  _145
REMARK   62  A    between atoms: _147  and  _149
REMARK   63  A    between atoms: _149  and  _150
REMARK   64  A    between atoms: _149  and  _152
REMARK   65  A    between atoms: _152  and  _153
REMARK   66  A    between atoms: _156  and  _158
REMARK   67  A    between atoms: _158  and  _159
REMARK   68  A    between atoms: _158  and  _161
REMARK   69  A    between atoms: _161  and  _162
REMARK   70  A    between atoms: _165  and  _167
REMARK   71  A    between atoms: _167  and  _168
REMARK   72  A    between atoms: _167  and  _170
REMARK   73  A    between atoms: _170  and  _171
REMARK   74  A    between atoms: _175  and  _176
REMARK   75  A    between atoms: _181  and  _183
REMARK   76  A    between atoms: _183  and  _184
REMARK   77  A    between atoms: _183  and  _186
REMARK   78  A    between atoms: _186  and  _187
REMARK   79  A    between atoms: _190  and  _192
REMARK   80  A    between atoms: _192  and  _193
REMARK   81  A    between atoms: _192  and  _195
REMARK   82  A    between atoms: _195  and  _196
REMARK   83  A    between atoms: _201  and  _203
REMARK   84  A    between atoms: _203  and  _204
REMARK   85  A    between atoms: _203  and  _206
REMARK   86  A    between atoms: _206  and  _207
REMARK   87  A    between atoms: _210  and  _212
REMARK   88  A    between atoms: _212  and  _213
REMARK   89  A    between atoms: _212  and  _215
REMARK   90  A    between atoms: _215  and  _216
REMARK   91  A    between atoms: _219  and  _221
REMARK   92  A    between atoms: _221  and  _222
REMARK   93  A    between atoms: _224  and  _226
REMARK   94  A    between atoms: _226  and  _227
REMARK   95  A    between atoms: _226  and  _229
REMARK   96  A    between atoms: _229  and  _230
REMARK   97  A    between atoms: _230  and  _231
REMARK   98  A    between atoms: _231  and  _232
REMARK   99  A    between atoms: _241  and  _243
REMARK  100  A    between atoms: _243  and  _244
REMARK  101  A    between atoms: _243  and  _246
REMARK  102  A    between atoms: _246  and  _247
REMARK  103  A    between atoms: _247  and  _248
REMARK  104  A    between atoms: _248  and  _249
REMARK  105  A    between atoms: _258  and  _260
REMARK  106  A    between atoms: _260  and  _261
REMARK  107  A    between atoms: _260  and  _263
REMARK  108  A    between atoms: _263  and  _264
REMARK  109  A    between atoms: _267  and  _269
REMARK  110  A    between atoms: _269  and  _270
REMARK  111  A    between atoms: _269  and  _272
REMARK  112  A    between atoms: _272  and  _273
REMARK  113  A    between atoms: _276  and  _278
REMARK  114  A    between atoms: _278  and  _279
REMARK  115  A    between atoms: _278  and  _281
REMARK  116  A    between atoms: _281  and  _282
REMARK  117  A    between atoms: _285  and  _287
REMARK  118  A    between atoms: _287  and  _288
REMARK  119  A    between atoms: _287  and  _290
REMARK  120  A    between atoms: _290  and  _291
REMARK  121  A    between atoms: _294  and  _296
REMARK  122  A    between atoms: _296  and  _297
REMARK  123  A    between atoms: _299  and  _301
REMARK  124  A    between atoms: _301  and  _302
REMARK  125  A    between atoms: _305  and  _307
REMARK  126  A    between atoms: _307  and  _308
REMARK  127  A    between atoms: _307  and  _310
REMARK  128  A    between atoms: _310  and  _311
REMARK  129  A    between atoms: _314  and  _316
REMARK  130  A    between atoms: _316  and  _317
REMARK  131  A    between atoms: _316  and  _319
REMARK  132  A    between atoms: _319  and  _320
REMARK  133  A    between atoms: _323  and  _325
REMARK  134  A    between atoms: _325  and  _326
REMARK  135  A    between atoms: _325  and  _328
REMARK  136  A    between atoms: _328  and  _329
REMARK  137  A    between atoms: _332  and  _334
REMARK  138  A    between atoms: _334  and  _335
REMARK  139  A    between atoms: _334  and  _337
REMARK  140  A    between atoms: _340  and  _342
REMARK  141  A    between atoms: _342  and  _343
REMARK  142  A    between atoms: _342  and  _345
REMARK  143  A    between atoms: _345  and  _346
REMARK  144  A    between atoms: _346  and  _347
REMARK  145  A    between atoms: _347  and  _348
REMARK  146  A    between atoms: _348  and  _349
REMARK  147  A    between atoms: _353  and  _355
REMARK  148  A    between atoms: _355  and  _356
REMARK  149  A    between atoms: _355  and  _358
REMARK  150  A    between atoms: _358  and  _359
REMARK  151  A    between atoms: _359  and  _360
REMARK  152  A    between atoms: _362  and  _364
REMARK  153  A    between atoms: _364  and  _365
REMARK  154  A    between atoms: _364  and  _367
REMARK  155  A    between atoms: _367  and  _368
REMARK  156  A    between atoms: _371  and  _373
REMARK  157  A    between atoms: _373  and  _374
REMARK  158  A    between atoms: _376  and  _378
REMARK  159  A    between atoms: _378  and  _379
REMARK  160  A    between atoms: _381  and  _383
REMARK  161  A    between atoms: _383  and  _384
REMARK  162  A    between atoms: _383  and  _386
REMARK  163  A    between atoms: _386  and  _387
REMARK  164  A    between atoms: _390  and  _392
REMARK  165  A    between atoms: _392  and  _393
REMARK  166  A    between atoms: _395  and  _397
REMARK  167  A    between atoms: _397  and  _398
REMARK  168  A    between atoms: _400  and  _402
REMARK  169  A    between atoms: _402  and  _403
REMARK  170  A    between atoms: _402  and  _405
REMARK  171  A    between atoms: _405  and  _406
REMARK  172  A    between atoms: _412  and  _414
REMARK  173  A    between atoms: _414  and  _415
REMARK  174  A    between atoms: _414  and  _417
REMARK  175  A    between atoms: _417  and  _418
REMARK  176  A    between atoms: _421  and  _423
REMARK  177  A    between atoms: _423  and  _424
REMARK  178  A    between atoms: _423  and  _426
REMARK  179  A    between atoms: _429  and  _431
REMARK  180  A    between atoms: _431  and  _432
REMARK  181  A    between atoms: _431  and  _434
REMARK  182  A    between atoms: _434  and  _435
REMARK  183  A    between atoms: _438  and  _440
REMARK  184  A    between atoms: _440  and  _441
REMARK  185  A    between atoms: _440  and  _443
REMARK  186  A    between atoms: _443  and  _444
REMARK  187  A    between atoms: _448  and  _449
REMARK  188  A    between atoms: _454  and  _456
REMARK  189  A    between atoms: _456  and  _457
REMARK  190  A    between atoms: _456  and  _459
REMARK  191  A    between atoms: _459  and  _460
REMARK  192  A    between atoms: _463  and  _465
REMARK  193  A    between atoms: _465  and  _466
REMARK  194  A    between atoms: _465  and  _468
REMARK  195  A    between atoms: _468  and  _469
REMARK  196  A    between atoms: _474  and  _476
REMARK  197  A    between atoms: _476  and  _477
REMARK  198  A    between atoms: _476  and  _479
REMARK  199  A    between atoms: _479  and  _480
REMARK  200  A    between atoms: _483  and  _485
REMARK  201  A    between atoms: _485  and  _486
REMARK  202  A    between atoms: _485  and  _488
REMARK  203  A    between atoms: _488  and  _489
REMARK  204  A    between atoms: _492  and  _494
REMARK  205  A    between atoms: _494  and  _495
REMARK  206  A    between atoms: _497  and  _499
REMARK  207  A    between atoms: _499  and  _500
REMARK  208  A    between atoms: _499  and  _502
REMARK  209  A    between atoms: _502  and  _503
REMARK  210  A    between atoms: _503  and  _504
REMARK  211  A    between atoms: _504  and  _505
REMARK  212  A    between atoms: _514  and  _516
REMARK  213  A    between atoms: _516  and  _517
REMARK  214  A    between atoms: _516  and  _519
REMARK  215  A    between atoms: _519  and  _520
REMARK                            x       y       z     vdW  Elec       q    Type
REMARK                         _______ _______ _______ _____ _____    ______ ____
ROOT
ATOM      1  O   HOH     1      -3.683  15.728  16.482  0.00  0.00    +0.000 OA
ENDROOT
TORSDOF 0
REMARK  Name = ../refined-set-2016/1gnm/1gnm_pocket.pdb
REMARK  215 active torsions:
REMARK  status: ('A' for Active; 'I' for Inactive)
REMARK    1  A    between atoms: _1  and  _3
REMARK    2  A    between atoms: _3  and  _4
REMARK    3  A    between atoms: _3  and  _6
REMARK    4  A    between atoms: _6  and  _7
REMARK    5  A    between atoms: _7  and  _8
REMARK    6  A    between atoms: _8  and  _9
REMARK    7  A    between atoms: _18  and  _20
REMARK    8  A    between atoms: _20  and  _21
REMARK    9  A    between atoms: _20  and  _23
REMARK   10  A    between atoms: _23  and  _24
REMARK   11  A    between atoms: _27  and  _29
REMARK   12  A    between atoms: _29  and  _30
REMARK   13  A    between atoms: _29  and  _32
REMARK   14  A    between atoms: _32  and  _33
REMARK   15  A    between atoms: _36  and  _38
REMARK   16  A    between atoms: _38  and  _39
REMARK   17  A    between atoms: _38  and  _41
REMARK   18  A    between atoms: _41  and  _42
REMARK   19  A    between atoms: _45  and  _47
REMARK   20  A    between atoms: _47  and  _48
REMARK   21  A    between atoms: _47  and  _50
REMARK   22  A    between atoms: _50  and  _51
REMARK   23  A    between atoms: _54  and  _56
REMARK   24  A    between atoms: _56  and  _57
REMARK   25  A    between atoms: _56  and  _59
REMARK   26  A    between atoms: _59  and  _60
REMARK   27  A    between atoms: _63  and  _65
REMARK   28  A    between atoms: _65  and  _66
REMARK   29  A    between atoms: _68  and  _70
REMARK   30  A    between atoms: _70  and  _71
REMARK   31  A    between atoms: _74  and  _76
REMARK   32  A    between atoms: _76  and  _77
REMARK   33  A    between atoms: _76  and  _79
REMARK   34  A    between atoms: _79  and  _80
REMARK   35  A    between atoms: _83  and  _85
REMARK   36  A    between atoms: _85  and  _86
REMARK   37  A    between atoms: _85  and  _88
REMARK   38  A    between atoms: _88  and  _89
REMARK   39  A    between atoms: _92  and  _94
REMARK   40  A    between atoms: _94  and  _95
REMARK   41  A    between atoms: _94  and  _97
REMARK   42  A    between atoms: _97  and  _98
REMARK   43  A    between atoms: _101  and  _103
REMARK   44  A    between atoms: _103  and  _104
REMARK   45  A    between atoms: _103  and  _106
REMARK   46  A    between atoms: _109  and  _111
REMARK   47  A    between atoms: _111  and  _112
REMARK   48  A    between atoms: _111  and  _114
REMARK   49  A    between atoms: _114  and  _115
REMARK   50  A    between atoms: _118  and  _120
REMARK   51  A    between atoms: _120  and  _121
REMARK   52  A    between atoms: _123  and  _125
REMARK   53  A    between atoms: _125  and  _126
REMARK   54  A    between atoms: _128  and  _130
REMARK   55  A    between atoms: _130  and  _131
REMARK   56  A    between atoms: _130  and  _133
REMARK   57  A    between atoms: _133  and  _134
REMARK   58  A    between atoms: _137  and  _139
REMARK   59  A    between atoms: _139  and  _140
REMARK   60  A    between atoms: _142  and  _144
REMARK   61  A    between atoms: _144  and  _145
REMARK   62  A    between atoms: _147  and  _149
REMARK   63  A    between atoms: _149  and  _150
REMARK   64  A    between atoms: _149  and  _152
REMARK   65  A    between atoms: _152  and  _153
REMARK   66  A    between atoms: _156  and  _158
REMARK   67  A    between atoms: _158  and  _159
REMARK   68  A    between atoms: _158  and  _161
REMARK   69  A    between atoms: _161  and  _162
REMARK   70  A    between atoms: _165  and  _167
REMARK   71  A    between atoms: _167  and  _168
REMARK   72  A    between atoms: _167  and  _170
REMARK   73  A    between atoms: _170  and  _171
REMARK   74  A    between atoms: _175  and  _176
REMARK   75  A    between atoms: _181  and  _183
REMARK   76  A    between atoms: _183  and  _184
REMARK   77  A    between atoms: _183  and  _186
REMARK   78  A    between atoms: _186  and  _187
REMARK   79  A    between atoms: _190  and  _192
REMARK   80  A    between atoms: _192  and  _193
REMARK   81  A    between atoms: _192  and  _195
REMARK   82  A    between atoms: _195  and  _196
REMARK   83  A    between atoms: _201  and  _203
REMARK   84  A    between atoms: _203  and  _204
REMARK   85  A    between atoms: _203  and  _206
REMARK   86  A    between atoms: _206  and  _207
REMARK   87  A    between atoms: _210  and  _212
REMARK   88  A    between atoms: _212  and  _213
REMARK   89  A    between atoms: _212  and  _215
REMARK   90  A    between atoms: _215  and  _216
REMARK   91  A    between atoms: _219  and  _221
REMARK   92  A    between atoms: _221  and  _222
REMARK   93  A    between atoms: _224  and  _226
REMARK   94  A    between atoms: _226  and  _227
REMARK   95  A    between atoms: _226  and  _229
REMARK   96  A    between atoms: _229  and  _230
REMARK   97  A    between atoms: _230  and  _231
REMARK   98  A    between atoms: _231  and  _232
REMARK   99  A    between atoms: _241  and  _243
REMARK  100  A    between atoms: _243  and  _244
REMARK  101  A    between atoms: _243  and  _246
REMARK  102  A    between atoms: _246  and  _247
REMARK  103  A    between atoms: _247  and  _248
REMARK  104  A    between atoms: _248  and  _249
REMARK  105  A    between atoms: _258  and  _260
REMARK  106  A    between atoms: _260  and  _261
REMARK  107  A    between atoms: _260  and  _263
REMARK  108  A    between atoms: _263  and  _264
REMARK  109  A    between atoms: _267  and  _269
REMARK  110  A    between atoms: _269  and  _270
REMARK  111  A    between atoms: _269  and  _272
REMARK  112  A    between atoms: _272  and  _273
REMARK  113  A    between atoms: _276  and  _278
REMARK  114  A    between atoms: _278  and  _279
REMARK  115  A    between atoms: _278  and  _281
REMARK  116  A    between atoms: _281  and  _282
REMARK  117  A    between atoms: _285  and  _287
REMARK  118  A    between atoms: _287  and  _288
REMARK  119  A    between atoms: _287  and  _290
REMARK  120  A    between atoms: _290  and  _291
REMARK  121  A    between atoms: _294  and  _296
REMARK  122  A    between atoms: _296  and  _297
REMARK  123  A    between atoms: _299  and  _301
REMARK  124  A    between atoms: _301  and  _302
REMARK  125  A    between atoms: _305  and  _307
REMARK  126  A    between atoms: _307  and  _308
REMARK  127  A    between atoms: _307  and  _310
REMARK  128  A    between atoms: _310  and  _311
REMARK  129  A    between atoms: _314  and  _316
REMARK  130  A    between atoms: _316  and  _317
REMARK  131  A    between atoms: _316  and  _319
REMARK  132  A    between atoms: _319  and  _320
REMARK  133  A    between atoms: _323  and  _325
REMARK  134  A    between atoms: _325  and  _326
REMARK  135  A    between atoms: _325  and  _328
REMARK  136  A    between atoms: _328  and  _329
REMARK  137  A    between atoms: _332  and  _334
REMARK  138  A    between atoms: _334  and  _335
REMARK  139  A    between atoms: _334  and  _337
REMARK  140  A    between atoms: _340  and  _342
REMARK  141  A    between atoms: _342  and  _343
REMARK  142  A    between atoms: _342  and  _345
REMARK  143  A    between atoms: _345  and  _346
REMARK  144  A    between atoms: _346  and  _347
REMARK  145  A    between atoms: _347  and  _348
REMARK  146  A    between atoms: _348  and  _349
REMARK  147  A    between atoms: _353  and  _355
REMARK  148  A    between atoms: _355  and  _356
REMARK  149  A    between atoms: _355  and  _358
REMARK  150  A    between atoms: _358  and  _359
REMARK  151  A    between atoms: _359  and  _360
REMARK  152  A    between atoms: _362  and  _364
REMARK  153  A    between atoms: _364  and  _365
REMARK  154  A    between atoms: _364  and  _367
REMARK  155  A    between atoms: _367  and  _368
REMARK  156  A    between atoms: _371  and  _373
REMARK  157  A    between atoms: _373  and  _374
REMARK  158  A    between atoms: _376  and  _378
REMARK  159  A    between atoms: _378  and  _379
REMARK  160  A    between atoms: _381  and  _383
REMARK  161  A    between atoms: _383  and  _384
REMARK  162  A    between atoms: _383  and  _386
REMARK  163  A    between atoms: _386  and  _387
REMARK  164  A    between atoms: _390  and  _392
REMARK  165  A    between atoms: _392  and  _393
REMARK  166  A    between atoms: _395  and  _397
REMARK  167  A    between atoms: _397  and  _398
REMARK  168  A    between atoms: _400  and  _402
REMARK  169  A    between atoms: _402  and  _403
REMARK  170  A    between atoms: _402  and  _405
REMARK  171  A    between atoms: _405  and  _406
REMARK  172  A    between atoms: _412  and  _414
REMARK  173  A    between atoms: _414  and  _415
REMARK  174  A    between atoms: _414  and  _417
REMARK  175  A    between atoms: _417  and  _418
REMARK  176  A    between atoms: _421  and  _423
REMARK  177  A    between atoms: _423  and  _424
REMARK  178  A    between atoms: _423  and  _426
REMARK  179  A    between atoms: _429  and  _431
REMARK  180  A    between atoms: _431  and  _432
REMARK  181  A    between atoms: _431  and  _434
REMARK  182  A    between atoms: _434  and  _435
REMARK  183  A    between atoms: _438  and  _440
REMARK  184  A    between atoms: _440  and  _441
REMARK  185  A    between atoms: _440  and  _443
REMARK  186  A    between atoms: _443  and  _444
REMARK  187  A    between atoms: _448  and  _449
REMARK  188  A    between atoms: _454  and  _456
REMARK  189  A    between atoms: _456  and  _457
REMARK  190  A    between atoms: _456  and  _459
REMARK  191  A    between atoms: _459  and  _460
REMARK  192  A    between atoms: _463  and  _465
REMARK  193  A    between atoms: _465  and  _466
REMARK  194  A    between atoms: _465  and  _468
REMARK  195  A    between atoms: _468  and  _469
REMARK  196  A    between atoms: _474  and  _476
REMARK  197  A    between atoms: _476  and  _477
REMARK  198  A    between atoms: _476  and  _479
REMARK  199  A    between atoms: _479  and  _480
REMARK  200  A    between atoms: _483  and  _485
REMARK  201  A    between atoms: _485  and  _486
REMARK  202  A    between atoms: _485  and  _488
REMARK  203  A    between atoms: _488  and  _489
REMARK  204  A    between atoms: _492  and  _494
REMARK  205  A    between atoms: _494  and  _495
REMARK  206  A    between atoms: _497  and  _499
REMARK  207  A    between atoms: _499  and  _500
REMARK  208  A    between atoms: _499  and  _502
REMARK  209  A    between atoms: _502  and  _503
REMARK  210  A    between atoms: _503  and  _504
REMARK  211  A    between atoms: _504  and  _505
REMARK  212  A    between atoms: _514  and  _516
REMARK  213  A    between atoms: _516  and  _517
REMARK  214  A    between atoms: _516  and  _519
REMARK  215  A    between atoms: _519  and  _520
REMARK                            x       y       z     vdW  Elec       q    Type
REMARK                         _______ _______ _______ _____ _____    ______ ____
ROOT
ATOM      1  O   HOH     1      -1.895  25.386  23.881  0.00  0.00    +0.000 OA
ENDROOT
TORSDOF 0
REMARK  Name = ../refined-set-2016/1gnm/1gnm_pocket.pdb
REMARK  215 active torsions:
REMARK  status: ('A' for Active; 'I' for Inactive)
REMARK    1  A    between atoms: _1  and  _3
REMARK    2  A    between atoms: _3  and  _4
REMARK    3  A    between atoms: _3  and  _6
REMARK    4  A    between atoms: _6  and  _7
REMARK    5  A    between atoms: _7  and  _8
REMARK    6  A    between atoms: _8  and  _9
REMARK    7  A    between atoms: _18  and  _20
REMARK    8  A    between atoms: _20  and  _21
REMARK    9  A    between atoms: _20  and  _23
REMARK   10  A    between atoms: _23  and  _24
REMARK   11  A    between atoms: _27  and  _29
REMARK   12  A    between atoms: _29  and  _30
REMARK   13  A    between atoms: _29  and  _32
REMARK   14  A    between atoms: _32  and  _33
REMARK   15  A    between atoms: _36  and  _38
REMARK   16  A    between atoms: _38  and  _39
REMARK   17  A    between atoms: _38  and  _41
REMARK   18  A    between atoms: _41  and  _42
REMARK   19  A    between atoms: _45  and  _47
REMARK   20  A    between atoms: _47  and  _48
REMARK   21  A    between atoms: _47  and  _50
REMARK   22  A    between atoms: _50  and  _51
REMARK   23  A    between atoms: _54  and  _56
REMARK   24  A    between atoms: _56  and  _57
REMARK   25  A    between atoms: _56  and  _59
REMARK   26  A    between atoms: _59  and  _60
REMARK   27  A    between atoms: _63  and  _65
REMARK   28  A    between atoms: _65  and  _66
REMARK   29  A    between atoms: _68  and  _70
REMARK   30  A    between atoms: _70  and  _71
REMARK   31  A    between atoms: _74  and  _76
REMARK   32  A    between atoms: _76  and  _77
REMARK   33  A    between atoms: _76  and  _79
REMARK   34  A    between atoms: _79  and  _80
REMARK   35  A    between atoms: _83  and  _85
REMARK   36  A    between atoms: _85  and  _86
REMARK   37  A    between atoms: _85  and  _88
REMARK   38  A    between atoms: _88  and  _89
REMARK   39  A    between atoms: _92  and  _94
REMARK   40  A    between atoms: _94  and  _95
REMARK   41  A    between atoms: _94  and  _97
REMARK   42  A    between atoms: _97  and  _98
REMARK   43  A    between atoms: _101  and  _103
REMARK   44  A    between atoms: _103  and  _104
REMARK   45  A    between atoms: _103  and  _106
REMARK   46  A    between atoms: _109  and  _111
REMARK   47  A    between atoms: _111  and  _112
REMARK   48  A    between atoms: _111  and  _114
REMARK   49  A    between atoms: _114  and  _115
REMARK   50  A    between atoms: _118  and  _120
REMARK   51  A    between atoms: _120  and  _121
REMARK   52  A    between atoms: _123  and  _125
REMARK   53  A    between atoms: _125  and  _126
REMARK   54  A    between atoms: _128  and  _130
REMARK   55  A    between atoms: _130  and  _131
REMARK   56  A    between atoms: _130  and  _133
REMARK   57  A    between atoms: _133  and  _134
REMARK   58  A    between atoms: _137  and  _139
REMARK   59  A    between atoms: _139  and  _140
REMARK   60  A    between atoms: _142  and  _144
REMARK   61  A    between atoms: _144  and  _145
REMARK   62  A    between atoms: _147  and  _149
REMARK   63  A    between atoms: _149  and  _150
REMARK   64  A    between atoms: _149  and  _152
REMARK   65  A    between atoms: _152  and  _153
REMARK   66  A    between atoms: _156  and  _158
REMARK   67  A    between atoms: _158  and  _159
REMARK   68  A    between atoms: _158  and  _161
REMARK   69  A    between atoms: _161  and  _162
REMARK   70  A    between atoms: _165  and  _167
REMARK   71  A    between atoms: _167  and  _168
REMARK   72  A    between atoms: _167  and  _170
REMARK   73  A    between atoms: _170  and  _171
REMARK   74  A    between atoms: _175  and  _176
REMARK   75  A    between atoms: _181  and  _183
REMARK   76  A    between atoms: _183  and  _184
REMARK   77  A    between atoms: _183  and  _186
REMARK   78  A    between atoms: _186  and  _187
REMARK   79  A    between atoms: _190  and  _192
REMARK   80  A    between atoms: _192  and  _193
REMARK   81  A    between atoms: _192  and  _195
REMARK   82  A    between atoms: _195  and  _196
REMARK   83  A    between atoms: _201  and  _203
REMARK   84  A    between atoms: _203  and  _204
REMARK   85  A    between atoms: _203  and  _206
REMARK   86  A    between atoms: _206  and  _207
REMARK   87  A    between atoms: _210  and  _212
REMARK   88  A    between atoms: _212  and  _213
REMARK   89  A    between atoms: _212  and  _215
REMARK   90  A    between atoms: _215  and  _216
REMARK   91  A    between atoms: _219  and  _221
REMARK   92  A    between atoms: _221  and  _222
REMARK   93  A    between atoms: _224  and  _226
REMARK   94  A    between atoms: _226  and  _227
REMARK   95  A    between atoms: _226  and  _229
REMARK   96  A    between atoms: _229  and  _230
REMARK   97  A    between atoms: _230  and  _231
REMARK   98  A    between atoms: _231  and  _232
REMARK   99  A    between atoms: _241  and  _243
REMARK  100  A    between atoms: _243  and  _244
REMARK  101  A    between atoms: _243  and  _246
REMARK  102  A    between atoms: _246  and  _247
REMARK  103  A    between atoms: _247  and  _248
REMARK  104  A    between atoms: _248  and  _249
REMARK  105  A    between atoms: _258  and  _260
REMARK  106  A    between atoms: _260  and  _261
REMARK  107  A    between atoms: _260  and  _263
REMARK  108  A    between atoms: _263  and  _264
REMARK  109  A    between atoms: _267  and  _269
REMARK  110  A    between atoms: _269  and  _270
REMARK  111  A    between atoms: _269  and  _272
REMARK  112  A    between atoms: _272  and  _273
REMARK  113  A    between atoms: _276  and  _278
REMARK  114  A    between atoms: _278  and  _279
REMARK  115  A    between atoms: _278  and  _281
REMARK  116  A    between atoms: _281  and  _282
REMARK  117  A    between atoms: _285  and  _287
REMARK  118  A    between atoms: _287  and  _288
REMARK  119  A    between atoms: _287  and  _290
REMARK  120  A    between atoms: _290  and  _291
REMARK  121  A    between atoms: _294  and  _296
REMARK  122  A    between atoms: _296  and  _297
REMARK  123  A    between atoms: _299  and  _301
REMARK  124  A    between atoms: _301  and  _302
REMARK  125  A    between atoms: _305  and  _307
REMARK  126  A    between atoms: _307  and  _308
REMARK  127  A    between atoms: _307  and  _310
REMARK  128  A    between atoms: _310  and  _311
REMARK  129  A    between atoms: _314  and  _316
REMARK  130  A    between atoms: _316  and  _317
REMARK  131  A    between atoms: _316  and  _319
REMARK  132  A    between atoms: _319  and  _320
REMARK  133  A    between atoms: _323  and  _325
REMARK  134  A    between atoms: _325  and  _326
REMARK  135  A    between atoms: _325  and  _328
REMARK  136  A    between atoms: _328  and  _329
REMARK  137  A    between atoms: _332  and  _334
REMARK  138  A    between atoms: _334  and  _335
REMARK  139  A    between atoms: _334  and  _337
REMARK  140  A    between atoms: _340  and  _342
REMARK  141  A    between atoms: _342  and  _343
REMARK  142  A    between atoms: _342  and  _345
REMARK  143  A    between atoms: _345  and  _346
REMARK  144  A    between atoms: _346  and  _347
REMARK  145  A    between atoms: _347  and  _348
REMARK  146  A    between atoms: _348  and  _349
REMARK  147  A    between atoms: _353  and  _355
REMARK  148  A    between atoms: _355  and  _356
REMARK  149  A    between atoms: _355  and  _358
REMARK  150  A    between atoms: _358  and  _359
REMARK  151  A    between atoms: _359  and  _360
REMARK  152  A    between atoms: _362  and  _364
REMARK  153  A    between atoms: _364  and  _365
REMARK  154  A    between atoms: _364  and  _367
REMARK  155  A    between atoms: _367  and  _368
REMARK  156  A    between atoms: _371  and  _373
REMARK  157  A    between atoms: _373  and  _374
REMARK  158  A    between atoms: _376  and  _378
REMARK  159  A    between atoms: _378  and  _379
REMARK  160  A    between atoms: _381  and  _383
REMARK  161  A    between atoms: _383  and  _384
REMARK  162  A    between atoms: _383  and  _386
REMARK  163  A    between atoms: _386  and  _387
REMARK  164  A    between atoms: _390  and  _392
REMARK  165  A    between atoms: _392  and  _393
REMARK  166  A    between atoms: _395  and  _397
REMARK  167  A    between atoms: _397  and  _398
REMARK  168  A    between atoms: _400  and  _402
REMARK  169  A    between atoms: _402  and  _403
REMARK  170  A    between atoms: _402  and  _405
REMARK  171  A    between atoms: _405  and  _406
REMARK  172  A    between atoms: _412  and  _414
REMARK  173  A    between atoms: _414  and  _415
REMARK  174  A    between atoms: _414  and  _417
REMARK  175  A    between atoms: _417  and  _418
REMARK  176  A    between atoms: _421  and  _423
REMARK  177  A    between atoms: _423  and  _424
REMARK  178  A    between atoms: _423  and  _426
REMARK  179  A    between atoms: _429  and  _431
REMARK  180  A    between atoms: _431  and  _432
REMARK  181  A    between atoms: _431  and  _434
REMARK  182  A    between atoms: _434  and  _435
REMARK  183  A    between atoms: _438  and  _440
REMARK  184  A    between atoms: _440  and  _441
REMARK  185  A    between atoms: _440  and  _443
REMARK  186  A    between atoms: _443  and  _444
REMARK  187  A    between atoms: _448  and  _449
REMARK  188  A    between atoms: _454  and  _456
REMARK  189  A    between atoms: _456  and  _457
REMARK  190  A    between atoms: _456  and  _459
REMARK  191  A    between atoms: _459  and  _460
REMARK  192  A    between atoms: _463  and  _465
REMARK  193  A    between atoms: _465  and  _466
REMARK  194  A    between atoms: _465  and  _468
REMARK  195  A    between atoms: _468  and  _469
REMARK  196  A    between atoms: _474  and  _476
REMARK  197  A    between atoms: _476  and  _477
REMARK  198  A    between atoms: _476  and  _479
REMARK  199  A    between atoms: _479  and  _480
REMARK  200  A    between atoms: _483  and  _485
REMARK  201  A    between atoms: _485  and  _486
REMARK  202  A    between atoms: _485  and  _488
REMARK  203  A    between atoms: _488  and  _489
REMARK  204  A    between atoms: _492  and  _494
REMARK  205  A    between atoms: _494  and  _495
REMARK  206  A    between atoms: _497  and  _499
REMARK  207  A    between atoms: _499  and  _500
REMARK  208  A    between atoms: _499  and  _502
REMARK  209  A    between atoms: _502  and  _503
REMARK  210  A    between atoms: _503  and  _504
REMARK  211  A    between atoms: _504  and  _505
REMARK  212  A    between atoms: _514  and  _516
REMARK  213  A    between atoms: _516  and  _517
REMARK  214  A    between atoms: _516  and  _519
REMARK  215  A    between atoms: _519  and  _520
REMARK                            x       y       z     vdW  Elec       q    Type
REMARK                         _______ _______ _______ _____ _____    ______ ____
ROOT
ATOM      1  O   HOH     1      -1.219  11.786  13.859  0.00  0.00    +0.000 OA
ENDROOT
TORSDOF 0
REMARK  Name = ../refined-set-2016/1gnm/1gnm_pocket.pdb
REMARK  215 active torsions:
REMARK  status: ('A' for Active; 'I' for Inactive)
REMARK    1  A    between atoms: _1  and  _3
REMARK    2  A    between atoms: _3  and  _4
REMARK    3  A    between atoms: _3  and  _6
REMARK    4  A    between atoms: _6  and  _7
REMARK    5  A    between atoms: _7  and  _8
REMARK    6  A    between atoms: _8  and  _9
REMARK    7  A    between atoms: _18  and  _20
REMARK    8  A    between atoms: _20  and  _21
REMARK    9  A    between atoms: _20  and  _23
REMARK   10  A    between atoms: _23  and  _24
REMARK   11  A    between atoms: _27  and  _29
REMARK   12  A    between atoms: _29  and  _30
REMARK   13  A    between atoms: _29  and  _32
REMARK   14  A    between atoms: _32  and  _33
REMARK   15  A    between atoms: _36  and  _38
REMARK   16  A    between atoms: _38  and  _39
REMARK   17  A    between atoms: _38  and  _41
REMARK   18  A    between atoms: _41  and  _42
REMARK   19  A    between atoms: _45  and  _47
REMARK   20  A    between atoms: _47  and  _48
REMARK   21  A    between atoms: _47  and  _50
REMARK   22  A    between atoms: _50  and  _51
REMARK   23  A    between atoms: _54  and  _56
REMARK   24  A    between atoms: _56  and  _57
REMARK   25  A    between atoms: _56  and  _59
REMARK   26  A    between atoms: _59  and  _60
REMARK   27  A    between atoms: _63  and  _65
REMARK   28  A    between atoms: _65  and  _66
REMARK   29  A    between atoms: _68  and  _70
REMARK   30  A    between atoms: _70  and  _71
REMARK   31  A    between atoms: _74  and  _76
REMARK   32  A    between atoms: _76  and  _77
REMARK   33  A    between atoms: _76  and  _79
REMARK   34  A    between atoms: _79  and  _80
REMARK   35  A    between atoms: _83  and  _85
REMARK   36  A    between atoms: _85  and  _86
REMARK   37  A    between atoms: _85  and  _88
REMARK   38  A    between atoms: _88  and  _89
REMARK   39  A    between atoms: _92  and  _94
REMARK   40  A    between atoms: _94  and  _95
REMARK   41  A    between atoms: _94  and  _97
REMARK   42  A    between atoms: _97  and  _98
REMARK   43  A    between atoms: _101  and  _103
REMARK   44  A    between atoms: _103  and  _104
REMARK   45  A    between atoms: _103  and  _106
REMARK   46  A    between atoms: _109  and  _111
REMARK   47  A    between atoms: _111  and  _112
REMARK   48  A    between atoms: _111  and  _114
REMARK   49  A    between atoms: _114  and  _115
REMARK   50  A    between atoms: _118  and  _120
REMARK   51  A    between atoms: _120  and  _121
REMARK   52  A    between atoms: _123  and  _125
REMARK   53  A    between atoms: _125  and  _126
REMARK   54  A    between atoms: _128  and  _130
REMARK   55  A    between atoms: _130  and  _131
REMARK   56  A    between atoms: _130  and  _133
REMARK   57  A    between atoms: _133  and  _134
REMARK   58  A    between atoms: _137  and  _139
REMARK   59  A    between atoms: _139  and  _140
REMARK   60  A    between atoms: _142  and  _144
REMARK   61  A    between atoms: _144  and  _145
REMARK   62  A    between atoms: _147  and  _149
REMARK   63  A    between atoms: _149  and  _150
REMARK   64  A    between atoms: _149  and  _152
REMARK   65  A    between atoms: _152  and  _153
REMARK   66  A    between atoms: _156  and  _158
REMARK   67  A    between atoms: _158  and  _159
REMARK   68  A    between atoms: _158  and  _161
REMARK   69  A    between atoms: _161  and  _162
REMARK   70  A    between atoms: _165  and  _167
REMARK   71  A    between atoms: _167  and  _168
REMARK   72  A    between atoms: _167  and  _170
REMARK   73  A    between atoms: _170  and  _171
REMARK   74  A    between atoms: _175  and  _176
REMARK   75  A    between atoms: _181  and  _183
REMARK   76  A    between atoms: _183  and  _184
REMARK   77  A    between atoms: _183  and  _186
REMARK   78  A    between atoms: _186  and  _187
REMARK   79  A    between atoms: _190  and  _192
REMARK   80  A    between atoms: _192  and  _193
REMARK   81  A    between atoms: _192  and  _195
REMARK   82  A    between atoms: _195  and  _196
REMARK   83  A    between atoms: _201  and  _203
REMARK   84  A    between atoms: _203  and  _204
REMARK   85  A    between atoms: _203  and  _206
REMARK   86  A    between atoms: _206  and  _207
REMARK   87  A    between atoms: _210  and  _212
REMARK   88  A    between atoms: _212  and  _213
REMARK   89  A    between atoms: _212  and  _215
REMARK   90  A    between atoms: _215  and  _216
REMARK   91  A    between atoms: _219  and  _221
REMARK   92  A    between atoms: _221  and  _222
REMARK   93  A    between atoms: _224  and  _226
REMARK   94  A    between atoms: _226  and  _227
REMARK   95  A    between atoms: _226  and  _229
REMARK   96  A    between atoms: _229  and  _230
REMARK   97  A    between atoms: _230  and  _231
REMARK   98  A    between atoms: _231  and  _232
REMARK   99  A    between atoms: _241  and  _243
REMARK  100  A    between atoms: _243  and  _244
REMARK  101  A    between atoms: _243  and  _246
REMARK  102  A    between atoms: _246  and  _247
REMARK  103  A    between atoms: _247  and  _248
REMARK  104  A    between atoms: _248  and  _249
REMARK  105  A    between atoms: _258  and  _260
REMARK  106  A    between atoms: _260  and  _261
REMARK  107  A    between atoms: _260  and  _263
REMARK  108  A    between atoms: _263  and  _264
REMARK  109  A    between atoms: _267  and  _269
REMARK  110  A    between atoms: _269  and  _270
REMARK  111  A    between atoms: _269  and  _272
REMARK  112  A    between atoms: _272  and  _273
REMARK  113  A    between atoms: _276  and  _278
REMARK  114  A    between atoms: _278  and  _279
REMARK  115  A    between atoms: _278  and  _281
REMARK  116  A    between atoms: _281  and  _282
REMARK  117  A    between atoms: _285  and  _287
REMARK  118  A    between atoms: _287  and  _288
REMARK  119  A    between atoms: _287  and  _290
REMARK  120  A    between atoms: _290  and  _291
REMARK  121  A    between atoms: _294  and  _296
REMARK  122  A    between atoms: _296  and  _297
REMARK  123  A    between atoms: _299  and  _301
REMARK  124  A    between atoms: _301  and  _302
REMARK  125  A    between atoms: _305  and  _307
REMARK  126  A    between atoms: _307  and  _308
REMARK  127  A    between atoms: _307  and  _310
REMARK  128  A    between atoms: _310  and  _311
REMARK  129  A    between atoms: _314  and  _316
REMARK  130  A    between atoms: _316  and  _317
REMARK  131  A    between atoms: _316  and  _319
REMARK  132  A    between atoms: _319  and  _320
REMARK  133  A    between atoms: _323  and  _325
REMARK  134  A    between atoms: _325  and  _326
REMARK  135  A    between atoms: _325  and  _328
REMARK  136  A    between atoms: _328  and  _329
REMARK  137  A    between atoms: _332  and  _334
REMARK  138  A    between atoms: _334  and  _335
REMARK  139  A    between atoms: _334  and  _337
REMARK  140  A    between atoms: _340  and  _342
REMARK  141  A    between atoms: _342  and  _343
REMARK  142  A    between atoms: _342  and  _345
REMARK  143  A    between atoms: _345  and  _346
REMARK  144  A    between atoms: _346  and  _347
REMARK  145  A    between atoms: _347  and  _348
REMARK  146  A    between atoms: _348  and  _349
REMARK  147  A    between atoms: _353  and  _355
REMARK  148  A    between atoms: _355  and  _356
REMARK  149  A    between atoms: _355  and  _358
REMARK  150  A    between atoms: _358  and  _359
REMARK  151  A    between atoms: _359  and  _360
REMARK  152  A    between atoms: _362  and  _364
REMARK  153  A    between atoms: _364  and  _365
REMARK  154  A    between atoms: _364  and  _367
REMARK  155  A    between atoms: _367  and  _368
REMARK  156  A    between atoms: _371  and  _373
REMARK  157  A    between atoms: _373  and  _374
REMARK  158  A    between atoms: _376  and  _378
REMARK  159  A    between atoms: _378  and  _379
REMARK  160  A    between atoms: _381  and  _383
REMARK  161  A    between atoms: _383  and  _384
REMARK  162  A    between atoms: _383  and  _386
REMARK  163  A    between atoms: _386  and  _387
REMARK  164  A    between atoms: _390  and  _392
REMARK  165  A    between atoms: _392  and  _393
REMARK  166  A    between atoms: _395  and  _397
REMARK  167  A    between atoms: _397  and  _398
REMARK  168  A    between atoms: _400  and  _402
REMARK  169  A    between atoms: _402  and  _403
REMARK  170  A    between atoms: _402  and  _405
REMARK  171  A    between atoms: _405  and  _406
REMARK  172  A    between atoms: _412  and  _414
REMARK  173  A    between atoms: _414  and  _415
REMARK  174  A    between atoms: _414  and  _417
REMARK  175  A    between atoms: _417  and  _418
REMARK  176  A    between atoms: _421  and  _423
REMARK  177  A    between atoms: _423  and  _424
REMARK  178  A    between atoms: _423  and  _426
REMARK  179  A    between atoms: _429  and  _431
REMARK  180  A    between atoms: _431  and  _432
REMARK  181  A    between atoms: _431  and  _434
REMARK  182  A    between atoms: _434  and  _435
REMARK  183  A    between atoms: _438  and  _440
REMARK  184  A    between atoms: _440  and  _441
REMARK  185  A    between atoms: _440  and  _443
REMARK  186  A    between atoms: _443  and  _444
REMARK  187  A    between atoms: _448  and  _449
REMARK  188  A    between atoms: _454  and  _456
REMARK  189  A    between atoms: _456  and  _457
REMARK  190  A    between atoms: _456  and  _459
REMARK  191  A    between atoms: _459  and  _460
REMARK  192  A    between atoms: _463  and  _465
REMARK  193  A    between atoms: _465  and  _466
REMARK  194  A    between atoms: _465  and  _468
REMARK  195  A    between atoms: _468  and  _469
REMARK  196  A    between atoms: _474  and  _476
REMARK  197  A    between atoms: _476  and  _477
REMARK  198  A    between atoms: _476  and  _479
REMARK  199  A    between atoms: _479  and  _480
REMARK  200  A    between atoms: _483  and  _485
REMARK  201  A    between atoms: _485  and  _486
REMARK  202  A    between atoms: _485  and  _488
REMARK  203  A    between atoms: _488  and  _489
REMARK  204  A    between atoms: _492  and  _494
REMARK  205  A    between atoms: _494  and  _495
REMARK  206  A    between atoms: _497  and  _499
REMARK  207  A    between atoms: _499  and  _500
REMARK  208  A    between atoms: _499  and  _502
REMARK  209  A    between atoms: _502  and  _503
REMARK  210  A    between atoms: _503  and  _504
REMARK  211  A    between atoms: _504  and  _505
REMARK  212  A    between atoms: _514  and  _516
REMARK  213  A    between atoms: _516  and  _517
REMARK  214  A    between atoms: _516  and  _519
REMARK  215  A    between atoms: _519  and  _520
REMARK                            x       y       z     vdW  Elec       q    Type
REMARK                         _______ _______ _______ _____ _____    ______ ____
ROOT
ATOM      1  O   HOH     1      -9.730  18.242  12.875  0.00  0.00    +0.000 OA
ENDROOT
TORSDOF 0
REMARK  Name = ../refined-set-2016/1gnm/1gnm_pocket.pdb
REMARK  215 active torsions:
REMARK  status: ('A' for Active; 'I' for Inactive)
REMARK    1  A    between atoms: _1  and  _3
REMARK    2  A    between atoms: _3  and  _4
REMARK    3  A    between atoms: _3  and  _6
REMARK    4  A    between atoms: _6  and  _7
REMARK    5  A    between atoms: _7  and  _8
REMARK    6  A    between atoms: _8  and  _9
REMARK    7  A    between atoms: _18  and  _20
REMARK    8  A    between atoms: _20  and  _21
REMARK    9  A    between atoms: _20  and  _23
REMARK   10  A    between atoms: _23  and  _24
REMARK   11  A    between atoms: _27  and  _29
REMARK   12  A    between atoms: _29  and  _30
REMARK   13  A    between atoms: _29  and  _32
REMARK   14  A    between atoms: _32  and  _33
REMARK   15  A    between atoms: _36  and  _38
REMARK   16  A    between atoms: _38  and  _39
REMARK   17  A    between atoms: _38  and  _41
REMARK   18  A    between atoms: _41  and  _42
REMARK   19  A    between atoms: _45  and  _47
REMARK   20  A    between atoms: _47  and  _48
REMARK   21  A    between atoms: _47  and  _50
REMARK   22  A    between atoms: _50  and  _51
REMARK   23  A    between atoms: _54  and  _56
REMARK   24  A    between atoms: _56  and  _57
REMARK   25  A    between atoms: _56  and  _59
REMARK   26  A    between atoms: _59  and  _60
REMARK   27  A    between atoms: _63  and  _65
REMARK   28  A    between atoms: _65  and  _66
REMARK   29  A    between atoms: _68  and  _70
REMARK   30  A    between atoms: _70  and  _71
REMARK   31  A    between atoms: _74  and  _76
REMARK   32  A    between atoms: _76  and  _77
REMARK   33  A    between atoms: _76  and  _79
REMARK   34  A    between atoms: _79  and  _80
REMARK   35  A    between atoms: _83  and  _85
REMARK   36  A    between atoms: _85  and  _86
REMARK   37  A    between atoms: _85  and  _88
REMARK   38  A    between atoms: _88  and  _89
REMARK   39  A    between atoms: _92  and  _94
REMARK   40  A    between atoms: _94  and  _95
REMARK   41  A    between atoms: _94  and  _97
REMARK   42  A    between atoms: _97  and  _98
REMARK   43  A    between atoms: _101  and  _103
REMARK   44  A    between atoms: _103  and  _104
REMARK   45  A    between atoms: _103  and  _106
REMARK   46  A    between atoms: _109  and  _111
REMARK   47  A    between atoms: _111  and  _112
REMARK   48  A    between atoms: _111  and  _114
REMARK   49  A    between atoms: _114  and  _115
REMARK   50  A    between atoms: _118  and  _120
REMARK   51  A    between atoms: _120  and  _121
REMARK   52  A    between atoms: _123  and  _125
REMARK   53  A    between atoms: _125  and  _126
REMARK   54  A    between atoms: _128  and  _130
REMARK   55  A    between atoms: _130  and  _131
REMARK   56  A    between atoms: _130  and  _133
REMARK   57  A    between atoms: _133  and  _134
REMARK   58  A    between atoms: _137  and  _139
REMARK   59  A    between atoms: _139  and  _140
REMARK   60  A    between atoms: _142  and  _144
REMARK   61  A    between atoms: _144  and  _145
REMARK   62  A    between atoms: _147  and  _149
REMARK   63  A    between atoms: _149  and  _150
REMARK   64  A    between atoms: _149  and  _152
REMARK   65  A    between atoms: _152  and  _153
REMARK   66  A    between atoms: _156  and  _158
REMARK   67  A    between atoms: _158  and  _159
REMARK   68  A    between atoms: _158  and  _161
REMARK   69  A    between atoms: _161  and  _162
REMARK   70  A    between atoms: _165  and  _167
REMARK   71  A    between atoms: _167  and  _168
REMARK   72  A    between atoms: _167  and  _170
REMARK   73  A    between atoms: _170  and  _171
REMARK   74  A    between atoms: _175  and  _176
REMARK   75  A    between atoms: _181  and  _183
REMARK   76  A    between atoms: _183  and  _184
REMARK   77  A    between atoms: _183  and  _186
REMARK   78  A    between atoms: _186  and  _187
REMARK   79  A    between atoms: _190  and  _192
REMARK   80  A    between atoms: _192  and  _193
REMARK   81  A    between atoms: _192  and  _195
REMARK   82  A    between atoms: _195  and  _196
REMARK   83  A    between atoms: _201  and  _203
REMARK   84  A    between atoms: _203  and  _204
REMARK   85  A    between atoms: _203  and  _206
REMARK   86  A    between atoms: _206  and  _207
REMARK   87  A    between atoms: _210  and  _212
REMARK   88  A    between atoms: _212  and  _213
REMARK   89  A    between atoms: _212  and  _215
REMARK   90  A    between atoms: _215  and  _216
REMARK   91  A    between atoms: _219  and  _221
REMARK   92  A    between atoms: _221  and  _222
REMARK   93  A    between atoms: _224  and  _226
REMARK   94  A    between atoms: _226  and  _227
REMARK   95  A    between atoms: _226  and  _229
REMARK   96  A    between atoms: _229  and  _230
REMARK   97  A    between atoms: _230  and  _231
REMARK   98  A    between atoms: _231  and  _232
REMARK   99  A    between atoms: _241  and  _243
REMARK  100  A    between atoms: _243  and  _244
REMARK  101  A    between atoms: _243  and  _246
REMARK  102  A    between atoms: _246  and  _247
REMARK  103  A    between atoms: _247  and  _248
REMARK  104  A    between atoms: _248  and  _249
REMARK  105  A    between atoms: _258  and  _260
REMARK  106  A    between atoms: _260  and  _261
REMARK  107  A    between atoms: _260  and  _263
REMARK  108  A    between atoms: _263  and  _264
REMARK  109  A    between atoms: _267  and  _269
REMARK  110  A    between atoms: _269  and  _270
REMARK  111  A    between atoms: _269  and  _272
REMARK  112  A    between atoms: _272  and  _273
REMARK  113  A    between atoms: _276  and  _278
REMARK  114  A    between atoms: _278  and  _279
REMARK  115  A    between atoms: _278  and  _281
REMARK  116  A    between atoms: _281  and  _282
REMARK  117  A    between atoms: _285  and  _287
REMARK  118  A    between atoms: _287  and  _288
REMARK  119  A    between atoms: _287  and  _290
REMARK  120  A    between atoms: _290  and  _291
REMARK  121  A    between atoms: _294  and  _296
REMARK  122  A    between atoms: _296  and  _297
REMARK  123  A    between atoms: _299  and  _301
REMARK  124  A    between atoms: _301  and  _302
REMARK  125  A    between atoms: _305  and  _307
REMARK  126  A    between atoms: _307  and  _308
REMARK  127  A    between atoms: _307  and  _310
REMARK  128  A    between atoms: _310  and  _311
REMARK  129  A    between atoms: _314  and  _316
REMARK  130  A    between atoms: _316  and  _317
REMARK  131  A    between atoms: _316  and  _319
REMARK  132  A    between atoms: _319  and  _320
REMARK  133  A    between atoms: _323  and  _325
REMARK  134  A    between atoms: _325  and  _326
REMARK  135  A    between atoms: _325  and  _328
REMARK  136  A    between atoms: _328  and  _329
REMARK  137  A    between atoms: _332  and  _334
REMARK  138  A    between atoms: _334  and  _335
REMARK  139  A    between atoms: _334  and  _337
REMARK  140  A    between atoms: _340  and  _342
REMARK  141  A    between atoms: _342  and  _343
REMARK  142  A    between atoms: _342  and  _345
REMARK  143  A    between atoms: _345  and  _346
REMARK  144  A    between atoms: _346  and  _347
REMARK  145  A    between atoms: _347  and  _348
REMARK  146  A    between atoms: _348  and  _349
REMARK  147  A    between atoms: _353  and  _355
REMARK  148  A    between atoms: _355  and  _356
REMARK  149  A    between atoms: _355  and  _358
REMARK  150  A    between atoms: _358  and  _359
REMARK  151  A    between atoms: _359  and  _360
REMARK  152  A    between atoms: _362  and  _364
REMARK  153  A    between atoms: _364  and  _365
REMARK  154  A    between atoms: _364  and  _367
REMARK  155  A    between atoms: _367  and  _368
REMARK  156  A    between atoms: _371  and  _373
REMARK  157  A    between atoms: _373  and  _374
REMARK  158  A    between atoms: _376  and  _378
REMARK  159  A    between atoms: _378  and  _379
REMARK  160  A    between atoms: _381  and  _383
REMARK  161  A    between atoms: _383  and  _384
REMARK  162  A    between atoms: _383  and  _386
REMARK  163  A    between atoms: _386  and  _387
REMARK  164  A    between atoms: _390  and  _392
REMARK  165  A    between atoms: _392  and  _393
REMARK  166  A    between atoms: _395  and  _397
REMARK  167  A    between atoms: _397  and  _398
REMARK  168  A    between atoms: _400  and  _402
REMARK  169  A    between atoms: _402  and  _403
REMARK  170  A    between atoms: _402  and  _405
REMARK  171  A    between atoms: _405  and  _406
REMARK  172  A    between atoms: _412  and  _414
REMARK  173  A    between atoms: _414  and  _415
REMARK  174  A    between atoms: _414  and  _417
REMARK  175  A    between atoms: _417  and  _418
REMARK  176  A    between atoms: _421  and  _423
REMARK  177  A    between atoms: _423  and  _424
REMARK  178  A    between atoms: _423  and  _426
REMARK  179  A    between atoms: _429  and  _431
REMARK  180  A    between atoms: _431  and  _432
REMARK  181  A    between atoms: _431  and  _434
REMARK  182  A    between atoms: _434  and  _435
REMARK  183  A    between atoms: _438  and  _440
REMARK  184  A    between atoms: _440  and  _441
REMARK  185  A    between atoms: _440  and  _443
REMARK  186  A    between atoms: _443  and  _444
REMARK  187  A    between atoms: _448  and  _449
REMARK  188  A    between atoms: _454  and  _456
REMARK  189  A    between atoms: _456  and  _457
REMARK  190  A    between atoms: _456  and  _459
REMARK  191  A    between atoms: _459  and  _460
REMARK  192  A    between atoms: _463  and  _465
REMARK  193  A    between atoms: _465  and  _466
REMARK  194  A    between atoms: _465  and  _468
REMARK  195  A    between atoms: _468  and  _469
REMARK  196  A    between atoms: _474  and  _476
REMARK  197  A    between atoms: _476  and  _477
REMARK  198  A    between atoms: _476  and  _479
REMARK  199  A    between atoms: _479  and  _480
REMARK  200  A    between atoms: _483  and  _485
REMARK  201  A    between atoms: _485  and  _486
REMARK  202  A    between atoms: _485  and  _488
REMARK  203  A    between atoms: _488  and  _489
REMARK  204  A    between atoms: _492  and  _494
REMARK  205  A    between atoms: _494  and  _495
REMARK  206  A    between atoms: _497  and  _499
REMARK  207  A    between atoms: _499  and  _500
REMARK  208  A    between atoms: _499  and  _502
REMARK  209  A    between atoms: _502  and  _503
REMARK  210  A    between atoms: _503  and  _504
REMARK  211  A    between atoms: _504  and  _505
REMARK  212  A    between atoms: _514  and  _516
REMARK  213  A    between atoms: _516  and  _517
REMARK  214  A    between atoms: _516  and  _519
REMARK  215  A    between atoms: _519  and  _520
REMARK                            x       y       z     vdW  Elec       q    Type
REMARK                         _______ _______ _______ _____ _____    ______ ____
ROOT
ATOM      1  O   HOH     1      -9.157  23.579  15.983  0.00  0.00    +0.000 OA
ENDROOT
TORSDOF 0
REMARK  Name = ../refined-set-2016/1gnm/1gnm_pocket.pdb
REMARK  215 active torsions:
REMARK  status: ('A' for Active; 'I' for Inactive)
REMARK    1  A    between atoms: _1  and  _3
REMARK    2  A    between atoms: _3  and  _4
REMARK    3  A    between atoms: _3  and  _6
REMARK    4  A    between atoms: _6  and  _7
REMARK    5  A    between atoms: _7  and  _8
REMARK    6  A    between atoms: _8  and  _9
REMARK    7  A    between atoms: _18  and  _20
REMARK    8  A    between atoms: _20  and  _21
REMARK    9  A    between atoms: _20  and  _23
REMARK   10  A    between atoms: _23  and  _24
REMARK   11  A    between atoms: _27  and  _29
REMARK   12  A    between atoms: _29  and  _30
REMARK   13  A    between atoms: _29  and  _32
REMARK   14  A    between atoms: _32  and  _33
REMARK   15  A    between atoms: _36  and  _38
REMARK   16  A    between atoms: _38  and  _39
REMARK   17  A    between atoms: _38  and  _41
REMARK   18  A    between atoms: _41  and  _42
REMARK   19  A    between atoms: _45  and  _47
REMARK   20  A    between atoms: _47  and  _48
REMARK   21  A    between atoms: _47  and  _50
REMARK   22  A    between atoms: _50  and  _51
REMARK   23  A    between atoms: _54  and  _56
REMARK   24  A    between atoms: _56  and  _57
REMARK   25  A    between atoms: _56  and  _59
REMARK   26  A    between atoms: _59  and  _60
REMARK   27  A    between atoms: _63  and  _65
REMARK   28  A    between atoms: _65  and  _66
REMARK   29  A    between atoms: _68  and  _70
REMARK   30  A    between atoms: _70  and  _71
REMARK   31  A    between atoms: _74  and  _76
REMARK   32  A    between atoms: _76  and  _77
REMARK   33  A    between atoms: _76  and  _79
REMARK   34  A    between atoms: _79  and  _80
REMARK   35  A    between atoms: _83  and  _85
REMARK   36  A    between atoms: _85  and  _86
REMARK   37  A    between atoms: _85  and  _88
REMARK   38  A    between atoms: _88  and  _89
REMARK   39  A    between atoms: _92  and  _94
REMARK   40  A    between atoms: _94  and  _95
REMARK   41  A    between atoms: _94  and  _97
REMARK   42  A    between atoms: _97  and  _98
REMARK   43  A    between atoms: _101  and  _103
REMARK   44  A    between atoms: _103  and  _104
REMARK   45  A    between atoms: _103  and  _106
REMARK   46  A    between atoms: _109  and  _111
REMARK   47  A    between atoms: _111  and  _112
REMARK   48  A    between atoms: _111  and  _114
REMARK   49  A    between atoms: _114  and  _115
REMARK   50  A    between atoms: _118  and  _120
REMARK   51  A    between atoms: _120  and  _121
REMARK   52  A    between atoms: _123  and  _125
REMARK   53  A    between atoms: _125  and  _126
REMARK   54  A    between atoms: _128  and  _130
REMARK   55  A    between atoms: _130  and  _131
REMARK   56  A    between atoms: _130  and  _133
REMARK   57  A    between atoms: _133  and  _134
REMARK   58  A    between atoms: _137  and  _139
REMARK   59  A    between atoms: _139  and  _140
REMARK   60  A    between atoms: _142  and  _144
REMARK   61  A    between atoms: _144  and  _145
REMARK   62  A    between atoms: _147  and  _149
REMARK   63  A    between atoms: _149  and  _150
REMARK   64  A    between atoms: _149  and  _152
REMARK   65  A    between atoms: _152  and  _153
REMARK   66  A    between atoms: _156  and  _158
REMARK   67  A    between atoms: _158  and  _159
REMARK   68  A    between atoms: _158  and  _161
REMARK   69  A    between atoms: _161  and  _162
REMARK   70  A    between atoms: _165  and  _167
REMARK   71  A    between atoms: _167  and  _168
REMARK   72  A    between atoms: _167  and  _170
REMARK   73  A    between atoms: _170  and  _171
REMARK   74  A    between atoms: _175  and  _176
REMARK   75  A    between atoms: _181  and  _183
REMARK   76  A    between atoms: _183  and  _184
REMARK   77  A    between atoms: _183  and  _186
REMARK   78  A    between atoms: _186  and  _187
REMARK   79  A    between atoms: _190  and  _192
REMARK   80  A    between atoms: _192  and  _193
REMARK   81  A    between atoms: _192  and  _195
REMARK   82  A    between atoms: _195  and  _196
REMARK   83  A    between atoms: _201  and  _203
REMARK   84  A    between atoms: _203  and  _204
REMARK   85  A    between atoms: _203  and  _206
REMARK   86  A    between atoms: _206  and  _207
REMARK   87  A    between atoms: _210  and  _212
REMARK   88  A    between atoms: _212  and  _213
REMARK   89  A    between atoms: _212  and  _215
REMARK   90  A    between atoms: _215  and  _216
REMARK   91  A    between atoms: _219  and  _221
REMARK   92  A    between atoms: _221  and  _222
REMARK   93  A    between atoms: _224  and  _226
REMARK   94  A    between atoms: _226  and  _227
REMARK   95  A    between atoms: _226  and  _229
REMARK   96  A    between atoms: _229  and  _230
REMARK   97  A    between atoms: _230  and  _231
REMARK   98  A    between atoms: _231  and  _232
REMARK   99  A    between atoms: _241  and  _243
REMARK  100  A    between atoms: _243  and  _244
REMARK  101  A    between atoms: _243  and  _246
REMARK  102  A    between atoms: _246  and  _247
REMARK  103  A    between atoms: _247  and  _248
REMARK  104  A    between atoms: _248  and  _249
REMARK  105  A    between atoms: _258  and  _260
REMARK  106  A    between atoms: _260  and  _261
REMARK  107  A    between atoms: _260  and  _263
REMARK  108  A    between atoms: _263  and  _264
REMARK  109  A    between atoms: _267  and  _269
REMARK  110  A    between atoms: _269  and  _270
REMARK  111  A    between atoms: _269  and  _272
REMARK  112  A    between atoms: _272  and  _273
REMARK  113  A    between atoms: _276  and  _278
REMARK  114  A    between atoms: _278  and  _279
REMARK  115  A    between atoms: _278  and  _281
REMARK  116  A    between atoms: _281  and  _282
REMARK  117  A    between atoms: _285  and  _287
REMARK  118  A    between atoms: _287  and  _288
REMARK  119  A    between atoms: _287  and  _290
REMARK  120  A    between atoms: _290  and  _291
REMARK  121  A    between atoms: _294  and  _296
REMARK  122  A    between atoms: _296  and  _297
REMARK  123  A    between atoms: _299  and  _301
REMARK  124  A    between atoms: _301  and  _302
REMARK  125  A    between atoms: _305  and  _307
REMARK  126  A    between atoms: _307  and  _308
REMARK  127  A    between atoms: _307  and  _310
REMARK  128  A    between atoms: _310  and  _311
REMARK  129  A    between atoms: _314  and  _316
REMARK  130  A    between atoms: _316  and  _317
REMARK  131  A    between atoms: _316  and  _319
REMARK  132  A    between atoms: _319  and  _320
REMARK  133  A    between atoms: _323  and  _325
REMARK  134  A    between atoms: _325  and  _326
REMARK  135  A    between atoms: _325  and  _328
REMARK  136  A    between atoms: _328  and  _329
REMARK  137  A    between atoms: _332  and  _334
REMARK  138  A    between atoms: _334  and  _335
REMARK  139  A    between atoms: _334  and  _337
REMARK  140  A    between atoms: _340  and  _342
REMARK  141  A    between atoms: _342  and  _343
REMARK  142  A    between atoms: _342  and  _345
REMARK  143  A    between atoms: _345  and  _346
REMARK  144  A    between atoms: _346  and  _347
REMARK  145  A    between atoms: _347  and  _348
REMARK  146  A    between atoms: _348  and  _349
REMARK  147  A    between atoms: _353  and  _355
REMARK  148  A    between atoms: _355  and  _356
REMARK  149  A    between atoms: _355  and  _358
REMARK  150  A    between atoms: _358  and  _359
REMARK  151  A    between atoms: _359  and  _360
REMARK  152  A    between atoms: _362  and  _364
REMARK  153  A    between atoms: _364  and  _365
REMARK  154  A    between atoms: _364  and  _367
REMARK  155  A    between atoms: _367  and  _368
REMARK  156  A    between atoms: _371  and  _373
REMARK  157  A    between atoms: _373  and  _374
REMARK  158  A    between atoms: _376  and  _378
REMARK  159  A    between atoms: _378  and  _379
REMARK  160  A    between atoms: _381  and  _383
REMARK  161  A    between atoms: _383  and  _384
REMARK  162  A    between atoms: _383  and  _386
REMARK  163  A    between atoms: _386  and  _387
REMARK  164  A    between atoms: _390  and  _392
REMARK  165  A    between atoms: _392  and  _393
REMARK  166  A    between atoms: _395  and  _397
REMARK  167  A    between atoms: _397  and  _398
REMARK  168  A    between atoms: _400  and  _402
REMARK  169  A    between atoms: _402  and  _403
REMARK  170  A    between atoms: _402  and  _405
REMARK  171  A    between atoms: _405  and  _406
REMARK  172  A    between atoms: _412  and  _414
REMARK  173  A    between atoms: _414  and  _415
REMARK  174  A    between atoms: _414  and  _417
REMARK  175  A    between atoms: _417  and  _418
REMARK  176  A    between atoms: _421  and  _423
REMARK  177  A    between atoms: _423  and  _424
REMARK  178  A    between atoms: _423  and  _426
REMARK  179  A    between atoms: _429  and  _431
REMARK  180  A    between atoms: _431  and  _432
REMARK  181  A    between atoms: _431  and  _434
REMARK  182  A    between atoms: _434  and  _435
REMARK  183  A    between atoms: _438  and  _440
REMARK  184  A    between atoms: _440  and  _441
REMARK  185  A    between atoms: _440  and  _443
REMARK  186  A    between atoms: _443  and  _444
REMARK  187  A    between atoms: _448  and  _449
REMARK  188  A    between atoms: _454  and  _456
REMARK  189  A    between atoms: _456  and  _457
REMARK  190  A    between atoms: _456  and  _459
REMARK  191  A    between atoms: _459  and  _460
REMARK  192  A    between atoms: _463  and  _465
REMARK  193  A    between atoms: _465  and  _466
REMARK  194  A    between atoms: _465  and  _468
REMARK  195  A    between atoms: _468  and  _469
REMARK  196  A    between atoms: _474  and  _476
REMARK  197  A    between atoms: _476  and  _477
REMARK  198  A    between atoms: _476  and  _479
REMARK  199  A    between atoms: _479  and  _480
REMARK  200  A    between atoms: _483  and  _485
REMARK  201  A    between atoms: _485  and  _486
REMARK  202  A    between atoms: _485  and  _488
REMARK  203  A    between atoms: _488  and  _489
REMARK  204  A    between atoms: _492  and  _494
REMARK  205  A    between atoms: _494  and  _495
REMARK  206  A    between atoms: _497  and  _499
REMARK  207  A    between atoms: _499  and  _500
REMARK  208  A    between atoms: _499  and  _502
REMARK  209  A    between atoms: _502  and  _503
REMARK  210  A    between atoms: _503  and  _504
REMARK  211  A    between atoms: _504  and  _505
REMARK  212  A    between atoms: _514  and  _516
REMARK  213  A    between atoms: _516  and  _517
REMARK  214  A    between atoms: _516  and  _519
REMARK  215  A    between atoms: _519  and  _520
REMARK                            x       y       z     vdW  Elec       q    Type
REMARK                         _______ _______ _______ _____ _____    ______ ____
ROOT
ATOM      1  O   HOH     1     -12.599  17.577  14.415  0.00  0.00    +0.000 OA
ENDROOT
TORSDOF 0
REMARK  Name = ../refined-set-2016/1gnm/1gnm_pocket.pdb
REMARK  215 active torsions:
REMARK  status: ('A' for Active; 'I' for Inactive)
REMARK    1  A    between atoms: _1  and  _3
REMARK    2  A    between atoms: _3  and  _4
REMARK    3  A    between atoms: _3  and  _6
REMARK    4  A    between atoms: _6  and  _7
REMARK    5  A    between atoms: _7  and  _8
REMARK    6  A    between atoms: _8  and  _9
REMARK    7  A    between atoms: _18  and  _20
REMARK    8  A    between atoms: _20  and  _21
REMARK    9  A    between atoms: _20  and  _23
REMARK   10  A    between atoms: _23  and  _24
REMARK   11  A    between atoms: _27  and  _29
REMARK   12  A    between atoms: _29  and  _30
REMARK   13  A    between atoms: _29  and  _32
REMARK   14  A    between atoms: _32  and  _33
REMARK   15  A    between atoms: _36  and  _38
REMARK   16  A    between atoms: _38  and  _39
REMARK   17  A    between atoms: _38  and  _41
REMARK   18  A    between atoms: _41  and  _42
REMARK   19  A    between atoms: _45  and  _47
REMARK   20  A    between atoms: _47  and  _48
REMARK   21  A    between atoms: _47  and  _50
REMARK   22  A    between atoms: _50  and  _51
REMARK   23  A    between atoms: _54  and  _56
REMARK   24  A    between atoms: _56  and  _57
REMARK   25  A    between atoms: _56  and  _59
REMARK   26  A    between atoms: _59  and  _60
REMARK   27  A    between atoms: _63  and  _65
REMARK   28  A    between atoms: _65  and  _66
REMARK   29  A    between atoms: _68  and  _70
REMARK   30  A    between atoms: _70  and  _71
REMARK   31  A    between atoms: _74  and  _76
REMARK   32  A    between atoms: _76  and  _77
REMARK   33  A    between atoms: _76  and  _79
REMARK   34  A    between atoms: _79  and  _80
REMARK   35  A    between atoms: _83  and  _85
REMARK   36  A    between atoms: _85  and  _86
REMARK   37  A    between atoms: _85  and  _88
REMARK   38  A    between atoms: _88  and  _89
REMARK   39  A    between atoms: _92  and  _94
REMARK   40  A    between atoms: _94  and  _95
REMARK   41  A    between atoms: _94  and  _97
REMARK   42  A    between atoms: _97  and  _98
REMARK   43  A    between atoms: _101  and  _103
REMARK   44  A    between atoms: _103  and  _104
REMARK   45  A    between atoms: _103  and  _106
REMARK   46  A    between atoms: _109  and  _111
REMARK   47  A    between atoms: _111  and  _112
REMARK   48  A    between atoms: _111  and  _114
REMARK   49  A    between atoms: _114  and  _115
REMARK   50  A    between atoms: _118  and  _120
REMARK   51  A    between atoms: _120  and  _121
REMARK   52  A    between atoms: _123  and  _125
REMARK   53  A    between atoms: _125  and  _126
REMARK   54  A    between atoms: _128  and  _130
REMARK   55  A    between atoms: _130  and  _131
REMARK   56  A    between atoms: _130  and  _133
REMARK   57  A    between atoms: _133  and  _134
REMARK   58  A    between atoms: _137  and  _139
REMARK   59  A    between atoms: _139  and  _140
REMARK   60  A    between atoms: _142  and  _144
REMARK   61  A    between atoms: _144  and  _145
REMARK   62  A    between atoms: _147  and  _149
REMARK   63  A    between atoms: _149  and  _150
REMARK   64  A    between atoms: _149  and  _152
REMARK   65  A    between atoms: _152  and  _153
REMARK   66  A    between atoms: _156  and  _158
REMARK   67  A    between atoms: _158  and  _159
REMARK   68  A    between atoms: _158  and  _161
REMARK   69  A    between atoms: _161  and  _162
REMARK   70  A    between atoms: _165  and  _167
REMARK   71  A    between atoms: _167  and  _168
REMARK   72  A    between atoms: _167  and  _170
REMARK   73  A    between atoms: _170  and  _171
REMARK   74  A    between atoms: _175  and  _176
REMARK   75  A    between atoms: _181  and  _183
REMARK   76  A    between atoms: _183  and  _184
REMARK   77  A    between atoms: _183  and  _186
REMARK   78  A    between atoms: _186  and  _187
REMARK   79  A    between atoms: _190  and  _192
REMARK   80  A    between atoms: _192  and  _193
REMARK   81  A    between atoms: _192  and  _195
REMARK   82  A    between atoms: _195  and  _196
REMARK   83  A    between atoms: _201  and  _203
REMARK   84  A    between atoms: _203  and  _204
REMARK   85  A    between atoms: _203  and  _206
REMARK   86  A    between atoms: _206  and  _207
REMARK   87  A    between atoms: _210  and  _212
REMARK   88  A    between atoms: _212  and  _213
REMARK   89  A    between atoms: _212  and  _215
REMARK   90  A    between atoms: _215  and  _216
REMARK   91  A    between atoms: _219  and  _221
REMARK   92  A    between atoms: _221  and  _222
REMARK   93  A    between atoms: _224  and  _226
REMARK   94  A    between atoms: _226  and  _227
REMARK   95  A    between atoms: _226  and  _229
REMARK   96  A    between atoms: _229  and  _230
REMARK   97  A    between atoms: _230  and  _231
REMARK   98  A    between atoms: _231  and  _232
REMARK   99  A    between atoms: _241  and  _243
REMARK  100  A    between atoms: _243  and  _244
REMARK  101  A    between atoms: _243  and  _246
REMARK  102  A    between atoms: _246  and  _247
REMARK  103  A    between atoms: _247  and  _248
REMARK  104  A    between atoms: _248  and  _249
REMARK  105  A    between atoms: _258  and  _260
REMARK  106  A    between atoms: _260  and  _261
REMARK  107  A    between atoms: _260  and  _263
REMARK  108  A    between atoms: _263  and  _264
REMARK  109  A    between atoms: _267  and  _269
REMARK  110  A    between atoms: _269  and  _270
REMARK  111  A    between atoms: _269  and  _272
REMARK  112  A    between atoms: _272  and  _273
REMARK  113  A    between atoms: _276  and  _278
REMARK  114  A    between atoms: _278  and  _279
REMARK  115  A    between atoms: _278  and  _281
REMARK  116  A    between atoms: _281  and  _282
REMARK  117  A    between atoms: _285  and  _287
REMARK  118  A    between atoms: _287  and  _288
REMARK  119  A    between atoms: _287  and  _290
REMARK  120  A    between atoms: _290  and  _291
REMARK  121  A    between atoms: _294  and  _296
REMARK  122  A    between atoms: _296  and  _297
REMARK  123  A    between atoms: _299  and  _301
REMARK  124  A    between atoms: _301  and  _302
REMARK  125  A    between atoms: _305  and  _307
REMARK  126  A    between atoms: _307  and  _308
REMARK  127  A    between atoms: _307  and  _310
REMARK  128  A    between atoms: _310  and  _311
REMARK  129  A    between atoms: _314  and  _316
REMARK  130  A    between atoms: _316  and  _317
REMARK  131  A    between atoms: _316  and  _319
REMARK  132  A    between atoms: _319  and  _320
REMARK  133  A    between atoms: _323  and  _325
REMARK  134  A    between atoms: _325  and  _326
REMARK  135  A    between atoms: _325  and  _328
REMARK  136  A    between atoms: _328  and  _329
REMARK  137  A    between atoms: _332  and  _334
REMARK  138  A    between atoms: _334  and  _335
REMARK  139  A    between atoms: _334  and  _337
REMARK  140  A    between atoms: _340  and  _342
REMARK  141  A    between atoms: _342  and  _343
REMARK  142  A    between atoms: _342  and  _345
REMARK  143  A    between atoms: _345  and  _346
REMARK  144  A    between atoms: _346  and  _347
REMARK  145  A    between atoms: _347  and  _348
REMARK  146  A    between atoms: _348  and  _349
REMARK  147  A    between atoms: _353  and  _355
REMARK  148  A    between atoms: _355  and  _356
REMARK  149  A    between atoms: _355  and  _358
REMARK  150  A    between atoms: _358  and  _359
REMARK  151  A    between atoms: _359  and  _360
REMARK  152  A    between atoms: _362  and  _364
REMARK  153  A    between atoms: _364  and  _365
REMARK  154  A    between atoms: _364  and  _367
REMARK  155  A    between atoms: _367  and  _368
REMARK  156  A    between atoms: _371  and  _373
REMARK  157  A    between atoms: _373  and  _374
REMARK  158  A    between atoms: _376  and  _378
REMARK  159  A    between atoms: _378  and  _379
REMARK  160  A    between atoms: _381  and  _383
REMARK  161  A    between atoms: _383  and  _384
REMARK  162  A    between atoms: _383  and  _386
REMARK  163  A    between atoms: _386  and  _387
REMARK  164  A    between atoms: _390  and  _392
REMARK  165  A    between atoms: _392  and  _393
REMARK  166  A    between atoms: _395  and  _397
REMARK  167  A    between atoms: _397  and  _398
REMARK  168  A    between atoms: _400  and  _402
REMARK  169  A    between atoms: _402  and  _403
REMARK  170  A    between atoms: _402  and  _405
REMARK  171  A    between atoms: _405  and  _406
REMARK  172  A    between atoms: _412  and  _414
REMARK  173  A    between atoms: _414  and  _415
REMARK  174  A    between atoms: _414  and  _417
REMARK  175  A    between atoms: _417  and  _418
REMARK  176  A    between atoms: _421  and  _423
REMARK  177  A    between atoms: _423  and  _424
REMARK  178  A    between atoms: _423  and  _426
REMARK  179  A    between atoms: _429  and  _431
REMARK  180  A    between atoms: _431  and  _432
REMARK  181  A    between atoms: _431  and  _434
REMARK  182  A    between atoms: _434  and  _435
REMARK  183  A    between atoms: _438  and  _440
REMARK  184  A    between atoms: _440  and  _441
REMARK  185  A    between atoms: _440  and  _443
REMARK  186  A    between atoms: _443  and  _444
REMARK  187  A    between atoms: _448  and  _449
REMARK  188  A    between atoms: _454  and  _456
REMARK  189  A    between atoms: _456  and  _457
REMARK  190  A    between atoms: _456  and  _459
REMARK  191  A    between atoms: _459  and  _460
REMARK  192  A    between atoms: _463  and  _465
REMARK  193  A    between atoms: _465  and  _466
REMARK  194  A    between atoms: _465  and  _468
REMARK  195  A    between atoms: _468  and  _469
REMARK  196  A    between atoms: _474  and  _476
REMARK  197  A    between atoms: _476  and  _477
REMARK  198  A    between atoms: _476  and  _479
REMARK  199  A    between atoms: _479  and  _480
REMARK  200  A    between atoms: _483  and  _485
REMARK  201  A    between atoms: _485  and  _486
REMARK  202  A    between atoms: _485  and  _488
REMARK  203  A    between atoms: _488  and  _489
REMARK  204  A    between atoms: _492  and  _494
REMARK  205  A    between atoms: _494  and  _495
REMARK  206  A    between atoms: _497  and  _499
REMARK  207  A    between atoms: _499  and  _500
REMARK  208  A    between atoms: _499  and  _502
REMARK  209  A    between atoms: _502  and  _503
REMARK  210  A    between atoms: _503  and  _504
REMARK  211  A    between atoms: _504  and  _505
REMARK  212  A    between atoms: _514  and  _516
REMARK  213  A    between atoms: _516  and  _517
REMARK  214  A    between atoms: _516  and  _519
REMARK  215  A    between atoms: _519  and  _520
REMARK                            x       y       z     vdW  Elec       q    Type
REMARK                         _______ _______ _______ _____ _____    ______ ____
ROOT
ATOM      1  O   HOH     1      -1.688  12.123  30.243  0.00  0.00    +0.000 OA
ENDROOT
TORSDOF 0
REMARK  Name = ../refined-set-2016/1gnm/1gnm_pocket.pdb
REMARK  215 active torsions:
REMARK  status: ('A' for Active; 'I' for Inactive)
REMARK    1  A    between atoms: _1  and  _3
REMARK    2  A    between atoms: _3  and  _4
REMARK    3  A    between atoms: _3  and  _6
REMARK    4  A    between atoms: _6  and  _7
REMARK    5  A    between atoms: _7  and  _8
REMARK    6  A    between atoms: _8  and  _9
REMARK    7  A    between atoms: _18  and  _20
REMARK    8  A    between atoms: _20  and  _21
REMARK    9  A    between atoms: _20  and  _23
REMARK   10  A    between atoms: _23  and  _24
REMARK   11  A    between atoms: _27  and  _29
REMARK   12  A    between atoms: _29  and  _30
REMARK   13  A    between atoms: _29  and  _32
REMARK   14  A    between atoms: _32  and  _33
REMARK   15  A    between atoms: _36  and  _38
REMARK   16  A    between atoms: _38  and  _39
REMARK   17  A    between atoms: _38  and  _41
REMARK   18  A    between atoms: _41  and  _42
REMARK   19  A    between atoms: _45  and  _47
REMARK   20  A    between atoms: _47  and  _48
REMARK   21  A    between atoms: _47  and  _50
REMARK   22  A    between atoms: _50  and  _51
REMARK   23  A    between atoms: _54  and  _56
REMARK   24  A    between atoms: _56  and  _57
REMARK   25  A    between atoms: _56  and  _59
REMARK   26  A    between atoms: _59  and  _60
REMARK   27  A    between atoms: _63  and  _65
REMARK   28  A    between atoms: _65  and  _66
REMARK   29  A    between atoms: _68  and  _70
REMARK   30  A    between atoms: _70  and  _71
REMARK   31  A    between atoms: _74  and  _76
REMARK   32  A    between atoms: _76  and  _77
REMARK   33  A    between atoms: _76  and  _79
REMARK   34  A    between atoms: _79  and  _80
REMARK   35  A    between atoms: _83  and  _85
REMARK   36  A    between atoms: _85  and  _86
REMARK   37  A    between atoms: _85  and  _88
REMARK   38  A    between atoms: _88  and  _89
REMARK   39  A    between atoms: _92  and  _94
REMARK   40  A    between atoms: _94  and  _95
REMARK   41  A    between atoms: _94  and  _97
REMARK   42  A    between atoms: _97  and  _98
REMARK   43  A    between atoms: _101  and  _103
REMARK   44  A    between atoms: _103  and  _104
REMARK   45  A    between atoms: _103  and  _106
REMARK   46  A    between atoms: _109  and  _111
REMARK   47  A    between atoms: _111  and  _112
REMARK   48  A    between atoms: _111  and  _114
REMARK   49  A    between atoms: _114  and  _115
REMARK   50  A    between atoms: _118  and  _120
REMARK   51  A    between atoms: _120  and  _121
REMARK   52  A    between atoms: _123  and  _125
REMARK   53  A    between atoms: _125  and  _126
REMARK   54  A    between atoms: _128  and  _130
REMARK   55  A    between atoms: _130  and  _131
REMARK   56  A    between atoms: _130  and  _133
REMARK   57  A    between atoms: _133  and  _134
REMARK   58  A    between atoms: _137  and  _139
REMARK   59  A    between atoms: _139  and  _140
REMARK   60  A    between atoms: _142  and  _144
REMARK   61  A    between atoms: _144  and  _145
REMARK   62  A    between atoms: _147  and  _149
REMARK   63  A    between atoms: _149  and  _150
REMARK   64  A    between atoms: _149  and  _152
REMARK   65  A    between atoms: _152  and  _153
REMARK   66  A    between atoms: _156  and  _158
REMARK   67  A    between atoms: _158  and  _159
REMARK   68  A    between atoms: _158  and  _161
REMARK   69  A    between atoms: _161  and  _162
REMARK   70  A    between atoms: _165  and  _167
REMARK   71  A    between atoms: _167  and  _168
REMARK   72  A    between atoms: _167  and  _170
REMARK   73  A    between atoms: _170  and  _171
REMARK   74  A    between atoms: _175  and  _176
REMARK   75  A    between atoms: _181  and  _183
REMARK   76  A    between atoms: _183  and  _184
REMARK   77  A    between atoms: _183  and  _186
REMARK   78  A    between atoms: _186  and  _187
REMARK   79  A    between atoms: _190  and  _192
REMARK   80  A    between atoms: _192  and  _193
REMARK   81  A    between atoms: _192  and  _195
REMARK   82  A    between atoms: _195  and  _196
REMARK   83  A    between atoms: _201  and  _203
REMARK   84  A    between atoms: _203  and  _204
REMARK   85  A    between atoms: _203  and  _206
REMARK   86  A    between atoms: _206  and  _207
REMARK   87  A    between atoms: _210  and  _212
REMARK   88  A    between atoms: _212  and  _213
REMARK   89  A    between atoms: _212  and  _215
REMARK   90  A    between atoms: _215  and  _216
REMARK   91  A    between atoms: _219  and  _221
REMARK   92  A    between atoms: _221  and  _222
REMARK   93  A    between atoms: _224  and  _226
REMARK   94  A    between atoms: _226  and  _227
REMARK   95  A    between atoms: _226  and  _229
REMARK   96  A    between atoms: _229  and  _230
REMARK   97  A    between atoms: _230  and  _231
REMARK   98  A    between atoms: _231  and  _232
REMARK   99  A    between atoms: _241  and  _243
REMARK  100  A    between atoms: _243  and  _244
REMARK  101  A    between atoms: _243  and  _246
REMARK  102  A    between atoms: _246  and  _247
REMARK  103  A    between atoms: _247  and  _248
REMARK  104  A    between atoms: _248  and  _249
REMARK  105  A    between atoms: _258  and  _260
REMARK  106  A    between atoms: _260  and  _261
REMARK  107  A    between atoms: _260  and  _263
REMARK  108  A    between atoms: _263  and  _264
REMARK  109  A    between atoms: _267  and  _269
REMARK  110  A    between atoms: _269  and  _270
REMARK  111  A    between atoms: _269  and  _272
REMARK  112  A    between atoms: _272  and  _273
REMARK  113  A    between atoms: _276  and  _278
REMARK  114  A    between atoms: _278  and  _279
REMARK  115  A    between atoms: _278  and  _281
REMARK  116  A    between atoms: _281  and  _282
REMARK  117  A    between atoms: _285  and  _287
REMARK  118  A    between atoms: _287  and  _288
REMARK  119  A    between atoms: _287  and  _290
REMARK  120  A    between atoms: _290  and  _291
REMARK  121  A    between atoms: _294  and  _296
REMARK  122  A    between atoms: _296  and  _297
REMARK  123  A    between atoms: _299  and  _301
REMARK  124  A    between atoms: _301  and  _302
REMARK  125  A    between atoms: _305  and  _307
REMARK  126  A    between atoms: _307  and  _308
REMARK  127  A    between atoms: _307  and  _310
REMARK  128  A    between atoms: _310  and  _311
REMARK  129  A    between atoms: _314  and  _316
REMARK  130  A    between atoms: _316  and  _317
REMARK  131  A    between atoms: _316  and  _319
REMARK  132  A    between atoms: _319  and  _320
REMARK  133  A    between atoms: _323  and  _325
REMARK  134  A    between atoms: _325  and  _326
REMARK  135  A    between atoms: _325  and  _328
REMARK  136  A    between atoms: _328  and  _329
REMARK  137  A    between atoms: _332  and  _334
REMARK  138  A    between atoms: _334  and  _335
REMARK  139  A    between atoms: _334  and  _337
REMARK  140  A    between atoms: _340  and  _342
REMARK  141  A    between atoms: _342  and  _343
REMARK  142  A    between atoms: _342  and  _345
REMARK  143  A    between atoms: _345  and  _346
REMARK  144  A    between atoms: _346  and  _347
REMARK  145  A    between atoms: _347  and  _348
REMARK  146  A    between atoms: _348  and  _349
REMARK  147  A    between atoms: _353  and  _355
REMARK  148  A    between atoms: _355  and  _356
REMARK  149  A    between atoms: _355  and  _358
REMARK  150  A    between atoms: _358  and  _359
REMARK  151  A    between atoms: _359  and  _360
REMARK  152  A    between atoms: _362  and  _364
REMARK  153  A    between atoms: _364  and  _365
REMARK  154  A    between atoms: _364  and  _367
REMARK  155  A    between atoms: _367  and  _368
REMARK  156  A    between atoms: _371  and  _373
REMARK  157  A    between atoms: _373  and  _374
REMARK  158  A    between atoms: _376  and  _378
REMARK  159  A    between atoms: _378  and  _379
REMARK  160  A    between atoms: _381  and  _383
REMARK  161  A    between atoms: _383  and  _384
REMARK  162  A    between atoms: _383  and  _386
REMARK  163  A    between atoms: _386  and  _387
REMARK  164  A    between atoms: _390  and  _392
REMARK  165  A    between atoms: _392  and  _393
REMARK  166  A    between atoms: _395  and  _397
REMARK  167  A    between atoms: _397  and  _398
REMARK  168  A    between atoms: _400  and  _402
REMARK  169  A    between atoms: _402  and  _403
REMARK  170  A    between atoms: _402  and  _405
REMARK  171  A    between atoms: _405  and  _406
REMARK  172  A    between atoms: _412  and  _414
REMARK  173  A    between atoms: _414  and  _415
REMARK  174  A    between atoms: _414  and  _417
REMARK  175  A    between atoms: _417  and  _418
REMARK  176  A    between atoms: _421  and  _423
REMARK  177  A    between atoms: _423  and  _424
REMARK  178  A    between atoms: _423  and  _426
REMARK  179  A    between atoms: _429  and  _431
REMARK  180  A    between atoms: _431  and  _432
REMARK  181  A    between atoms: _431  and  _434
REMARK  182  A    between atoms: _434  and  _435
REMARK  183  A    between atoms: _438  and  _440
REMARK  184  A    between atoms: _440  and  _441
REMARK  185  A    between atoms: _440  and  _443
REMARK  186  A    between atoms: _443  and  _444
REMARK  187  A    between atoms: _448  and  _449
REMARK  188  A    between atoms: _454  and  _456
REMARK  189  A    between atoms: _456  and  _457
REMARK  190  A    between atoms: _456  and  _459
REMARK  191  A    between atoms: _459  and  _460
REMARK  192  A    between atoms: _463  and  _465
REMARK  193  A    between atoms: _465  and  _466
REMARK  194  A    between atoms: _465  and  _468
REMARK  195  A    between atoms: _468  and  _469
REMARK  196  A    between atoms: _474  and  _476
REMARK  197  A    between atoms: _476  and  _477
REMARK  198  A    between atoms: _476  and  _479
REMARK  199  A    between atoms: _479  and  _480
REMARK  200  A    between atoms: _483  and  _485
REMARK  201  A    between atoms: _485  and  _486
REMARK  202  A    between atoms: _485  and  _488
REMARK  203  A    between atoms: _488  and  _489
REMARK  204  A    between atoms: _492  and  _494
REMARK  205  A    between atoms: _494  and  _495
REMARK  206  A    between atoms: _497  and  _499
REMARK  207  A    between atoms: _499  and  _500
REMARK  208  A    between atoms: _499  and  _502
REMARK  209  A    between atoms: _502  and  _503
REMARK  210  A    between atoms: _503  and  _504
REMARK  211  A    between atoms: _504  and  _505
REMARK  212  A    between atoms: _514  and  _516
REMARK  213  A    between atoms: _516  and  _517
REMARK  214  A    between atoms: _516  and  _519
REMARK  215  A    between atoms: _519  and  _520
REMARK                            x       y       z     vdW  Elec       q    Type
REMARK                         _______ _______ _______ _____ _____    ______ ____
ROOT
ATOM      1  O   HOH     1      -8.175  24.270  22.856  0.00  0.00    +0.000 OA
ENDROOT
TORSDOF 0
