REMARK  Name = ../refined-set-2016/2wec/2wec_pocket.pdb
REMARK  246 active torsions:
REMARK  status: ('A' for Active; 'I' for Inactive)
REMARK    1  A    between atoms: _1  and  _3
REMARK    2  A    between atoms: _3  and  _4
REMARK    3  A    between atoms: _3  and  _6
REMARK    4  A    between atoms: _6  and  _7
REMARK    5  A    between atoms: _10  and  _12
REMARK    6  A    between atoms: _12  and  _13
REMARK    7  A    between atoms: _12  and  _15
REMARK    8  A    between atoms: _15  and  _16
REMARK    9  A    between atoms: _19  and  _21
REMARK   10  A    between atoms: _21  and  _22
REMARK   11  A    between atoms: _21  and  _24
REMARK   12  A    between atoms: _24  and  _25
REMARK   13  A    between atoms: _25  and  _26
REMARK   14  A    between atoms: _29  and  _31
REMARK   15  A    between atoms: _31  and  _32
REMARK   16  A    between atoms: _31  and  _34
REMARK   17  A    between atoms: _34  and  _35
REMARK   18  A    between atoms: _35  and  _36
REMARK   19  A    between atoms: _39  and  _41
REMARK   20  A    between atoms: _41  and  _42
REMARK   21  A    between atoms: _41  and  _44
REMARK   22  A    between atoms: _44  and  _45
REMARK   23  A    between atoms: _50  and  _51
REMARK   24  A    between atoms: _53  and  _55
REMARK   25  A    between atoms: _55  and  _56
REMARK   26  A    between atoms: _55  and  _58
REMARK   27  A    between atoms: _58  and  _59
REMARK   28  A    between atoms: _64  and  _66
REMARK   29  A    between atoms: _66  and  _67
REMARK   30  A    between atoms: _66  and  _69
REMARK   31  A    between atoms: _69  and  _70
REMARK   32  A    between atoms: _73  and  _75
REMARK   33  A    between atoms: _75  and  _76
REMARK   34  A    between atoms: _75  and  _78
REMARK   35  A    between atoms: _78  and  _79
REMARK   36  A    between atoms: _82  and  _84
REMARK   37  A    between atoms: _84  and  _85
REMARK   38  A    between atoms: _87  and  _89
REMARK   39  A    between atoms: _89  and  _90
REMARK   40  A    between atoms: _89  and  _92
REMARK   41  A    between atoms: _92  and  _93
REMARK   42  A    between atoms: _95  and  _97
REMARK   43  A    between atoms: _97  and  _98
REMARK   44  A    between atoms: _97  and  _100
REMARK   45  A    between atoms: _100  and  _101
REMARK   46  A    between atoms: _104  and  _106
REMARK   47  A    between atoms: _106  and  _107
REMARK   48  A    between atoms: _106  and  _109
REMARK   49  A    between atoms: _109  and  _110
REMARK   50  A    between atoms: _112  and  _114
REMARK   51  A    between atoms: _114  and  _115
REMARK   52  A    between atoms: _114  and  _117
REMARK   53  A    between atoms: _117  and  _118
REMARK   54  A    between atoms: _123  and  _124
REMARK   55  A    between atoms: _126  and  _128
REMARK   56  A    between atoms: _128  and  _129
REMARK   57  A    between atoms: _131  and  _133
REMARK   58  A    between atoms: _133  and  _134
REMARK   59  A    between atoms: _133  and  _136
REMARK   60  A    between atoms: _136  and  _137
REMARK   61  A    between atoms: _140  and  _142
REMARK   62  A    between atoms: _142  and  _143
REMARK   63  A    between atoms: _145  and  _147
REMARK   64  A    between atoms: _147  and  _148
REMARK   65  A    between atoms: _147  and  _150
REMARK   66  A    between atoms: _150  and  _151
REMARK   67  A    between atoms: _153  and  _155
REMARK   68  A    between atoms: _155  and  _156
REMARK   69  A    between atoms: _155  and  _158
REMARK   70  A    between atoms: _158  and  _159
REMARK   71  A    between atoms: _159  and  _160
REMARK   72  A    between atoms: _165  and  _167
REMARK   73  A    between atoms: _167  and  _168
REMARK   74  A    between atoms: _167  and  _170
REMARK   75  A    between atoms: _170  and  _171
REMARK   76  A    between atoms: _177  and  _179
REMARK   77  A    between atoms: _179  and  _180
REMARK   78  A    between atoms: _179  and  _182
REMARK   79  A    between atoms: _182  and  _183
REMARK   80  A    between atoms: _186  and  _188
REMARK   81  A    between atoms: _188  and  _189
REMARK   82  A    between atoms: _188  and  _191
REMARK   83  A    between atoms: _191  and  _192
REMARK   84  A    between atoms: _197  and  _199
REMARK   85  A    between atoms: _199  and  _200
REMARK   86  A    between atoms: _199  and  _202
REMARK   87  A    between atoms: _202  and  _203
REMARK   88  A    between atoms: _208  and  _210
REMARK   89  A    between atoms: _210  and  _211
REMARK   90  A    between atoms: _210  and  _213
REMARK   91  A    between atoms: _213  and  _214
REMARK   92  A    between atoms: _217  and  _219
REMARK   93  A    between atoms: _219  and  _220
REMARK   94  A    between atoms: _223  and  _225
REMARK   95  A    between atoms: _225  and  _226
REMARK   96  A    between atoms: _225  and  _228
REMARK   97  A    between atoms: _228  and  _229
REMARK   98  A    between atoms: _232  and  _234
REMARK   99  A    between atoms: _234  and  _235
REMARK  100  A    between atoms: _234  and  _237
REMARK  101  A    between atoms: _237  and  _238
REMARK  102  A    between atoms: _244  and  _246
REMARK  103  A    between atoms: _246  and  _247
REMARK  104  A    between atoms: _246  and  _249
REMARK  105  A    between atoms: _249  and  _250
REMARK  106  A    between atoms: _253  and  _255
REMARK  107  A    between atoms: _255  and  _256
REMARK  108  A    between atoms: _255  and  _258
REMARK  109  A    between atoms: _258  and  _259
REMARK  110  A    between atoms: _262  and  _264
REMARK  111  A    between atoms: _264  and  _265
REMARK  112  A    between atoms: _264  and  _267
REMARK  113  A    between atoms: _267  and  _268
REMARK  114  A    between atoms: _271  and  _273
REMARK  115  A    between atoms: _273  and  _274
REMARK  116  A    between atoms: _276  and  _278
REMARK  117  A    between atoms: _278  and  _279
REMARK  118  A    between atoms: _278  and  _281
REMARK  119  A    between atoms: _281  and  _282
REMARK  120  A    between atoms: _285  and  _287
REMARK  121  A    between atoms: _287  and  _288
REMARK  122  A    between atoms: _287  and  _290
REMARK  123  A    between atoms: _290  and  _291
REMARK  124  A    between atoms: _294  and  _296
REMARK  125  A    between atoms: _296  and  _297
REMARK  126  A    between atoms: _296  and  _299
REMARK  127  A    between atoms: _299  and  _300
REMARK  128  A    between atoms: _303  and  _305
REMARK  129  A    between atoms: _305  and  _306
REMARK  130  A    between atoms: _305  and  _308
REMARK  131  A    between atoms: _308  and  _309
REMARK  132  A    between atoms: _312  and  _314
REMARK  133  A    between atoms: _314  and  _315
REMARK  134  A    between atoms: _314  and  _317
REMARK  135  A    between atoms: _317  and  _318
REMARK  136  A    between atoms: _321  and  _323
REMARK  137  A    between atoms: _323  and  _324
REMARK  138  A    between atoms: _323  and  _326
REMARK  139  A    between atoms: _326  and  _327
REMARK  140  A    between atoms: _330  and  _332
REMARK  141  A    between atoms: _332  and  _333
REMARK  142  A    between atoms: _332  and  _335
REMARK  143  A    between atoms: _335  and  _336
REMARK  144  A    between atoms: _338  and  _340
REMARK  145  A    between atoms: _340  and  _341
REMARK  146  A    between atoms: _340  and  _343
REMARK  147  A    between atoms: _343  and  _344
REMARK  148  A    between atoms: _349  and  _351
REMARK  149  A    between atoms: _351  and  _352
REMARK  150  A    between atoms: _355  and  _357
REMARK  151  A    between atoms: _357  and  _358
REMARK  152  A    between atoms: _360  and  _362
REMARK  153  A    between atoms: _362  and  _363
REMARK  154  A    between atoms: _365  and  _367
REMARK  155  A    between atoms: _367  and  _368
REMARK  156  A    between atoms: _367  and  _370
REMARK  157  A    between atoms: _370  and  _371
REMARK  158  A    between atoms: _376  and  _377
REMARK  159  A    between atoms: _379  and  _381
REMARK  160  A    between atoms: _381  and  _382
REMARK  161  A    between atoms: _381  and  _384
REMARK  162  A    between atoms: _384  and  _385
REMARK  163  A    between atoms: _390  and  _391
REMARK  164  A    between atoms: _393  and  _395
REMARK  165  A    between atoms: _395  and  _396
REMARK  166  A    between atoms: _395  and  _398
REMARK  167  A    between atoms: _398  and  _399
REMARK  168  A    between atoms: _401  and  _403
REMARK  169  A    between atoms: _403  and  _404
REMARK  170  A    between atoms: _403  and  _406
REMARK  171  A    between atoms: _406  and  _407
REMARK  172  A    between atoms: _410  and  _412
REMARK  173  A    between atoms: _412  and  _413
REMARK  174  A    between atoms: _415  and  _417
REMARK  175  A    between atoms: _417  and  _418
REMARK  176  A    between atoms: _420  and  _422
REMARK  177  A    between atoms: _422  and  _423
REMARK  178  A    between atoms: _422  and  _425
REMARK  179  A    between atoms: _425  and  _426
REMARK  180  A    between atoms: _429  and  _431
REMARK  181  A    between atoms: _431  and  _432
REMARK  182  A    between atoms: _431  and  _434
REMARK  183  A    between atoms: _434  and  _435
REMARK  184  A    between atoms: _435  and  _436
REMARK  185  A    between atoms: _441  and  _443
REMARK  186  A    between atoms: _443  and  _444
REMARK  187  A    between atoms: _443  and  _446
REMARK  188  A    between atoms: _446  and  _447
REMARK  189  A    between atoms: _449  and  _451
REMARK  190  A    between atoms: _451  and  _452
REMARK  191  A    between atoms: _451  and  _454
REMARK  192  A    between atoms: _454  and  _455
REMARK  193  A    between atoms: _460  and  _462
REMARK  194  A    between atoms: _462  and  _463
REMARK  195  A    between atoms: _462  and  _465
REMARK  196  A    between atoms: _465  and  _466
REMARK  197  A    between atoms: _468  and  _470
REMARK  198  A    between atoms: _470  and  _471
REMARK  199  A    between atoms: _473  and  _475
REMARK  200  A    between atoms: _475  and  _476
REMARK  201  A    between atoms: _475  and  _478
REMARK  202  A    between atoms: _478  and  _479
REMARK  203  A    between atoms: _482  and  _484
REMARK  204  A    between atoms: _484  and  _485
REMARK  205  A    between atoms: _484  and  _487
REMARK  206  A    between atoms: _487  and  _488
REMARK  207  A    between atoms: _494  and  _496
REMARK  208  A    between atoms: _496  and  _497
REMARK  209  A    between atoms: _496  and  _499
REMARK  210  A    between atoms: _499  and  _500
REMARK  211  A    between atoms: _502  and  _504
REMARK  212  A    between atoms: _504  and  _505
REMARK  213  A    between atoms: _504  and  _507
REMARK  214  A    between atoms: _507  and  _508
REMARK  215  A    between atoms: _511  and  _513
REMARK  216  A    between atoms: _513  and  _514
REMARK  217  A    between atoms: _516  and  _518
REMARK  218  A    between atoms: _518  and  _519
REMARK  219  A    between atoms: _518  and  _521
REMARK  220  A    between atoms: _521  and  _522
REMARK  221  A    between atoms: _525  and  _527
REMARK  222  A    between atoms: _527  and  _528
REMARK  223  A    between atoms: _527  and  _530
REMARK  224  A    between atoms: _530  and  _531
REMARK  225  A    between atoms: _533  and  _535
REMARK  226  A    between atoms: _535  and  _536
REMARK  227  A    between atoms: _538  and  _540
REMARK  228  A    between atoms: _540  and  _541
REMARK  229  A    between atoms: _540  and  _543
REMARK  230  A    between atoms: _543  and  _544
REMARK  231  A    between atoms: _549  and  _550
REMARK  232  A    between atoms: _552  and  _554
REMARK  233  A    between atoms: _554  and  _555
REMARK  234  A    between atoms: _554  and  _557
REMARK  235  A    between atoms: _557  and  _558
REMARK  236  A    between atoms: _561  and  _563
REMARK  237  A    between atoms: _563  and  _564
REMARK  238  A    between atoms: _563  and  _566
REMARK  239  A    between atoms: _566  and  _567
REMARK  240  A    between atoms: _567  and  _568
REMARK  241  A    between atoms: _574  and  _575
REMARK  242  A    between atoms: _580  and  _582
REMARK  243  A    between atoms: _582  and  _583
REMARK  244  A    between atoms: _582  and  _585
REMARK  245  A    between atoms: _585  and  _586
REMARK  246  A    between atoms: _586  and  _587
REMARK                            x       y       z     vdW  Elec       q    Type
REMARK                         _______ _______ _______ _____ _____    ______ ____
ROOT
ATOM      1  CA  THR A   1      18.642   4.498   7.119  0.00  0.00    +0.160 C 
ENDROOT
BRANCH   1   2
ATOM      2  N   THR A   1      18.612   5.953   7.172  0.00  0.00    -0.237 NA
ATOM      3  H   THR A   1      18.680   6.428   8.095  0.00  0.00    +0.142 HD
ENDBRANCH   1   2
BRANCH   1   4
ATOM      4  CB  THR A   1      19.416   3.908   8.319  0.00  0.00    +0.134 C 
ATOM      5  CG2 THR A   1      20.875   4.349   8.288  0.00  0.00    +0.034 C 
BRANCH   4   6
ATOM      6  OG1 THR A   1      18.790   4.322   9.540  0.00  0.00    -0.383 OA
ATOM      7  HG1 THR A   1      19.286   3.944  10.309  0.00  0.00    +0.210 HD
ENDBRANCH   4   6
ENDBRANCH   1   4
BRANCH   1   8
ATOM      8  C   THR A   1      17.162   4.102   7.206  0.00  0.00    +0.227 C 
ATOM      9  O   THR A   1      16.287   4.966   7.153  0.00  0.00    -0.287 OA
ENDBRANCH   1   8
TORSDOF 4
REMARK  Name = ../refined-set-2016/2wec/2wec_pocket.pdb
REMARK  246 active torsions:
REMARK  status: ('A' for Active; 'I' for Inactive)
REMARK    1  A    between atoms: _1  and  _3
REMARK    2  A    between atoms: _3  and  _4
REMARK    3  A    between atoms: _3  and  _6
REMARK    4  A    between atoms: _6  and  _7
REMARK    5  A    between atoms: _10  and  _12
REMARK    6  A    between atoms: _12  and  _13
REMARK    7  A    between atoms: _12  and  _15
REMARK    8  A    between atoms: _15  and  _16
REMARK    9  A    between atoms: _19  and  _21
REMARK   10  A    between atoms: _21  and  _22
REMARK   11  A    between atoms: _21  and  _24
REMARK   12  A    between atoms: _24  and  _25
REMARK   13  A    between atoms: _25  and  _26
REMARK   14  A    between atoms: _29  and  _31
REMARK   15  A    between atoms: _31  and  _32
REMARK   16  A    between atoms: _31  and  _34
REMARK   17  A    between atoms: _34  and  _35
REMARK   18  A    between atoms: _35  and  _36
REMARK   19  A    between atoms: _39  and  _41
REMARK   20  A    between atoms: _41  and  _42
REMARK   21  A    between atoms: _41  and  _44
REMARK   22  A    between atoms: _44  and  _45
REMARK   23  A    between atoms: _50  and  _51
REMARK   24  A    between atoms: _53  and  _55
REMARK   25  A    between atoms: _55  and  _56
REMARK   26  A    between atoms: _55  and  _58
REMARK   27  A    between atoms: _58  and  _59
REMARK   28  A    between atoms: _64  and  _66
REMARK   29  A    between atoms: _66  and  _67
REMARK   30  A    between atoms: _66  and  _69
REMARK   31  A    between atoms: _69  and  _70
REMARK   32  A    between atoms: _73  and  _75
REMARK   33  A    between atoms: _75  and  _76
REMARK   34  A    between atoms: _75  and  _78
REMARK   35  A    between atoms: _78  and  _79
REMARK   36  A    between atoms: _82  and  _84
REMARK   37  A    between atoms: _84  and  _85
REMARK   38  A    between atoms: _87  and  _89
REMARK   39  A    between atoms: _89  and  _90
REMARK   40  A    between atoms: _89  and  _92
REMARK   41  A    between atoms: _92  and  _93
REMARK   42  A    between atoms: _95  and  _97
REMARK   43  A    between atoms: _97  and  _98
REMARK   44  A    between atoms: _97  and  _100
REMARK   45  A    between atoms: _100  and  _101
REMARK   46  A    between atoms: _104  and  _106
REMARK   47  A    between atoms: _106  and  _107
REMARK   48  A    between atoms: _106  and  _109
REMARK   49  A    between atoms: _109  and  _110
REMARK   50  A    between atoms: _112  and  _114
REMARK   51  A    between atoms: _114  and  _115
REMARK   52  A    between atoms: _114  and  _117
REMARK   53  A    between atoms: _117  and  _118
REMARK   54  A    between atoms: _123  and  _124
REMARK   55  A    between atoms: _126  and  _128
REMARK   56  A    between atoms: _128  and  _129
REMARK   57  A    between atoms: _131  and  _133
REMARK   58  A    between atoms: _133  and  _134
REMARK   59  A    between atoms: _133  and  _136
REMARK   60  A    between atoms: _136  and  _137
REMARK   61  A    between atoms: _140  and  _142
REMARK   62  A    between atoms: _142  and  _143
REMARK   63  A    between atoms: _145  and  _147
REMARK   64  A    between atoms: _147  and  _148
REMARK   65  A    between atoms: _147  and  _150
REMARK   66  A    between atoms: _150  and  _151
REMARK   67  A    between atoms: _153  and  _155
REMARK   68  A    between atoms: _155  and  _156
REMARK   69  A    between atoms: _155  and  _158
REMARK   70  A    between atoms: _158  and  _159
REMARK   71  A    between atoms: _159  and  _160
REMARK   72  A    between atoms: _165  and  _167
REMARK   73  A    between atoms: _167  and  _168
REMARK   74  A    between atoms: _167  and  _170
REMARK   75  A    between atoms: _170  and  _171
REMARK   76  A    between atoms: _177  and  _179
REMARK   77  A    between atoms: _179  and  _180
REMARK   78  A    between atoms: _179  and  _182
REMARK   79  A    between atoms: _182  and  _183
REMARK   80  A    between atoms: _186  and  _188
REMARK   81  A    between atoms: _188  and  _189
REMARK   82  A    between atoms: _188  and  _191
REMARK   83  A    between atoms: _191  and  _192
REMARK   84  A    between atoms: _197  and  _199
REMARK   85  A    between atoms: _199  and  _200
REMARK   86  A    between atoms: _199  and  _202
REMARK   87  A    between atoms: _202  and  _203
REMARK   88  A    between atoms: _208  and  _210
REMARK   89  A    between atoms: _210  and  _211
REMARK   90  A    between atoms: _210  and  _213
REMARK   91  A    between atoms: _213  and  _214
REMARK   92  A    between atoms: _217  and  _219
REMARK   93  A    between atoms: _219  and  _220
REMARK   94  A    between atoms: _223  and  _225
REMARK   95  A    between atoms: _225  and  _226
REMARK   96  A    between atoms: _225  and  _228
REMARK   97  A    between atoms: _228  and  _229
REMARK   98  A    between atoms: _232  and  _234
REMARK   99  A    between atoms: _234  and  _235
REMARK  100  A    between atoms: _234  and  _237
REMARK  101  A    between atoms: _237  and  _238
REMARK  102  A    between atoms: _244  and  _246
REMARK  103  A    between atoms: _246  and  _247
REMARK  104  A    between atoms: _246  and  _249
REMARK  105  A    between atoms: _249  and  _250
REMARK  106  A    between atoms: _253  and  _255
REMARK  107  A    between atoms: _255  and  _256
REMARK  108  A    between atoms: _255  and  _258
REMARK  109  A    between atoms: _258  and  _259
REMARK  110  A    between atoms: _262  and  _264
REMARK  111  A    between atoms: _264  and  _265
REMARK  112  A    between atoms: _264  and  _267
REMARK  113  A    between atoms: _267  and  _268
REMARK  114  A    between atoms: _271  and  _273
REMARK  115  A    between atoms: _273  and  _274
REMARK  116  A    between atoms: _276  and  _278
REMARK  117  A    between atoms: _278  and  _279
REMARK  118  A    between atoms: _278  and  _281
REMARK  119  A    between atoms: _281  and  _282
REMARK  120  A    between atoms: _285  and  _287
REMARK  121  A    between atoms: _287  and  _288
REMARK  122  A    between atoms: _287  and  _290
REMARK  123  A    between atoms: _290  and  _291
REMARK  124  A    between atoms: _294  and  _296
REMARK  125  A    between atoms: _296  and  _297
REMARK  126  A    between atoms: _296  and  _299
REMARK  127  A    between atoms: _299  and  _300
REMARK  128  A    between atoms: _303  and  _305
REMARK  129  A    between atoms: _305  and  _306
REMARK  130  A    between atoms: _305  and  _308
REMARK  131  A    between atoms: _308  and  _309
REMARK  132  A    between atoms: _312  and  _314
REMARK  133  A    between atoms: _314  and  _315
REMARK  134  A    between atoms: _314  and  _317
REMARK  135  A    between atoms: _317  and  _318
REMARK  136  A    between atoms: _321  and  _323
REMARK  137  A    between atoms: _323  and  _324
REMARK  138  A    between atoms: _323  and  _326
REMARK  139  A    between atoms: _326  and  _327
REMARK  140  A    between atoms: _330  and  _332
REMARK  141  A    between atoms: _332  and  _333
REMARK  142  A    between atoms: _332  and  _335
REMARK  143  A    between atoms: _335  and  _336
REMARK  144  A    between atoms: _338  and  _340
REMARK  145  A    between atoms: _340  and  _341
REMARK  146  A    between atoms: _340  and  _343
REMARK  147  A    between atoms: _343  and  _344
REMARK  148  A    between atoms: _349  and  _351
REMARK  149  A    between atoms: _351  and  _352
REMARK  150  A    between atoms: _355  and  _357
REMARK  151  A    between atoms: _357  and  _358
REMARK  152  A    between atoms: _360  and  _362
REMARK  153  A    between atoms: _362  and  _363
REMARK  154  A    between atoms: _365  and  _367
REMARK  155  A    between atoms: _367  and  _368
REMARK  156  A    between atoms: _367  and  _370
REMARK  157  A    between atoms: _370  and  _371
REMARK  158  A    between atoms: _376  and  _377
REMARK  159  A    between atoms: _379  and  _381
REMARK  160  A    between atoms: _381  and  _382
REMARK  161  A    between atoms: _381  and  _384
REMARK  162  A    between atoms: _384  and  _385
REMARK  163  A    between atoms: _390  and  _391
REMARK  164  A    between atoms: _393  and  _395
REMARK  165  A    between atoms: _395  and  _396
REMARK  166  A    between atoms: _395  and  _398
REMARK  167  A    between atoms: _398  and  _399
REMARK  168  A    between atoms: _401  and  _403
REMARK  169  A    between atoms: _403  and  _404
REMARK  170  A    between atoms: _403  and  _406
REMARK  171  A    between atoms: _406  and  _407
REMARK  172  A    between atoms: _410  and  _412
REMARK  173  A    between atoms: _412  and  _413
REMARK  174  A    between atoms: _415  and  _417
REMARK  175  A    between atoms: _417  and  _418
REMARK  176  A    between atoms: _420  and  _422
REMARK  177  A    between atoms: _422  and  _423
REMARK  178  A    between atoms: _422  and  _425
REMARK  179  A    between atoms: _425  and  _426
REMARK  180  A    between atoms: _429  and  _431
REMARK  181  A    between atoms: _431  and  _432
REMARK  182  A    between atoms: _431  and  _434
REMARK  183  A    between atoms: _434  and  _435
REMARK  184  A    between atoms: _435  and  _436
REMARK  185  A    between atoms: _441  and  _443
REMARK  186  A    between atoms: _443  and  _444
REMARK  187  A    between atoms: _443  and  _446
REMARK  188  A    between atoms: _446  and  _447
REMARK  189  A    between atoms: _449  and  _451
REMARK  190  A    between atoms: _451  and  _452
REMARK  191  A    between atoms: _451  and  _454
REMARK  192  A    between atoms: _454  and  _455
REMARK  193  A    between atoms: _460  and  _462
REMARK  194  A    between atoms: _462  and  _463
REMARK  195  A    between atoms: _462  and  _465
REMARK  196  A    between atoms: _465  and  _466
REMARK  197  A    between atoms: _468  and  _470
REMARK  198  A    between atoms: _470  and  _471
REMARK  199  A    between atoms: _473  and  _475
REMARK  200  A    between atoms: _475  and  _476
REMARK  201  A    between atoms: _475  and  _478
REMARK  202  A    between atoms: _478  and  _479
REMARK  203  A    between atoms: _482  and  _484
REMARK  204  A    between atoms: _484  and  _485
REMARK  205  A    between atoms: _484  and  _487
REMARK  206  A    between atoms: _487  and  _488
REMARK  207  A    between atoms: _494  and  _496
REMARK  208  A    between atoms: _496  and  _497
REMARK  209  A    between atoms: _496  and  _499
REMARK  210  A    between atoms: _499  and  _500
REMARK  211  A    between atoms: _502  and  _504
REMARK  212  A    between atoms: _504  and  _505
REMARK  213  A    between atoms: _504  and  _507
REMARK  214  A    between atoms: _507  and  _508
REMARK  215  A    between atoms: _511  and  _513
REMARK  216  A    between atoms: _513  and  _514
REMARK  217  A    between atoms: _516  and  _518
REMARK  218  A    between atoms: _518  and  _519
REMARK  219  A    between atoms: _518  and  _521
REMARK  220  A    between atoms: _521  and  _522
REMARK  221  A    between atoms: _525  and  _527
REMARK  222  A    between atoms: _527  and  _528
REMARK  223  A    between atoms: _527  and  _530
REMARK  224  A    between atoms: _530  and  _531
REMARK  225  A    between atoms: _533  and  _535
REMARK  226  A    between atoms: _535  and  _536
REMARK  227  A    between atoms: _538  and  _540
REMARK  228  A    between atoms: _540  and  _541
REMARK  229  A    between atoms: _540  and  _543
REMARK  230  A    between atoms: _543  and  _544
REMARK  231  A    between atoms: _549  and  _550
REMARK  232  A    between atoms: _552  and  _554
REMARK  233  A    between atoms: _554  and  _555
REMARK  234  A    between atoms: _554  and  _557
REMARK  235  A    between atoms: _557  and  _558
REMARK  236  A    between atoms: _561  and  _563
REMARK  237  A    between atoms: _563  and  _564
REMARK  238  A    between atoms: _563  and  _566
REMARK  239  A    between atoms: _566  and  _567
REMARK  240  A    between atoms: _567  and  _568
REMARK  241  A    between atoms: _574  and  _575
REMARK  242  A    between atoms: _580  and  _582
REMARK  243  A    between atoms: _582  and  _583
REMARK  244  A    between atoms: _582  and  _585
REMARK  245  A    between atoms: _585  and  _586
REMARK  246  A    between atoms: _586  and  _587
REMARK                            x       y       z     vdW  Elec       q    Type
REMARK                         _______ _______ _______ _____ _____    ______ ____
ROOT
ATOM      1  CA  GLU A   3      19.794   7.580  11.741  0.00  0.00    +0.149 C 
ENDROOT
BRANCH   1   4
ATOM      2  C   GLU A   2      17.789   6.602  12.653  0.00  0.00    +0.241 C 
ATOM      3  O   GLU A   2      17.981   7.110  13.755  0.00  0.00    -0.273 OA
ATOM      4  N   GLU A   3      18.606   6.756  11.634  0.00  0.00    -0.297 N 
ATOM      5  H   GLU A   3      18.396   6.278  10.735  0.00  0.00    +0.150 HD
BRANCH   2   6
ATOM      6  CA  GLU A   2      16.547   5.773  12.372  0.00  0.00    +0.149 C 
BRANCH   6   9
ATOM      7  C   ASP A   1      15.541   7.152  10.705  0.00  0.00    +0.239 C 
ATOM      8  O   ASP A   1      15.512   8.073  11.521  0.00  0.00    -0.274 OA
ATOM      9  N   GLU A   2      16.046   5.969  11.026  0.00  0.00    -0.297 N 
ATOM     10  H   GLU A   2      16.082   5.199  10.328  0.00  0.00    +0.150 HD
BRANCH   7  11
ATOM     11  CA  ASP A   1      14.966   7.342   9.294  0.00  0.00    +0.156 C 
BRANCH  11  12
ATOM     12  N   ASP A   1      14.273   6.112   8.896  0.00  0.00    -0.238 NA
ATOM     13  H   ASP A   1      14.594   5.601   8.049  0.00  0.00    +0.142 HD
ENDBRANCH  11  12
BRANCH  11  14
ATOM     14  CB  ASP A   1      13.981   8.521   9.374  0.00  0.00    +0.140 C 
BRANCH  14  15
ATOM     15  CG  ASP A   1      13.290   8.843   8.058  0.00  0.00    +0.367 C 
ATOM     16  OD2 ASP A   1      12.277   9.594   8.136  0.00  0.00    -0.246 OA
ATOM     17  OD1 ASP A   1      13.767   8.448   6.967  0.00  0.00    -0.246 OA
ENDBRANCH  14  15
ENDBRANCH  11  14
ENDBRANCH   7  11
ENDBRANCH   6   9
BRANCH   6  18
ATOM     18  CB  GLU A   2      16.810   4.311  12.657  0.00  0.00    +0.041 C 
BRANCH  18  19
ATOM     19  CG  GLU A   2      17.156   4.107  14.133  0.00  0.00    +0.116 C 
BRANCH  19  20
ATOM     20  CD  GLU A   2      17.203   2.658  14.540  0.00  0.00    +0.365 C 
ATOM     21  OE2 GLU A   2      17.172   2.403  15.760  0.00  0.00    -0.246 OA
ATOM     22  OE1 GLU A   2      17.255   1.778  13.654  0.00  0.00    -0.246 OA
ENDBRANCH  19  20
ENDBRANCH  18  19
ENDBRANCH   6  18
ENDBRANCH   2   6
ENDBRANCH   1   4
BRANCH   1  23
ATOM     23  C   GLU A   3      20.126   8.104  10.344  0.00  0.00    +0.241 C 
ATOM     24  N   TYR A   4      20.907   9.182  10.288  0.00  0.00    -0.298 N 
ATOM     25  H   TYR A   4      21.255   9.592  11.178  0.00  0.00    +0.150 HD
ATOM     26  O   GLU A   3      19.588   7.634   9.350  0.00  0.00    -0.273 OA
BRANCH  24  27
ATOM     27  CA  TYR A   4      21.297   9.815   9.025  0.00  0.00    +0.141 C 
BRANCH  27  28
ATOM     28  C   TYR A   4      22.803   9.703   8.865  0.00  0.00    +0.227 C 
ATOM     29  O   TYR A   4      23.546  10.080   9.787  0.00  0.00    -0.286 OA
ENDBRANCH  27  28
BRANCH  27  30
ATOM     30  CB  TYR A   4      20.849  11.273   9.025  0.00  0.00    +0.054 C 
BRANCH  30  31
ATOM     31  CG  TYR A   4      19.339  11.378   8.933  0.00  0.00    -0.020 A 
ATOM     32  CD2 TYR A   4      18.530  11.142  10.029  0.00  0.00    -0.001 A 
ATOM     33  CE2 TYR A   4      17.143  11.229   9.930  0.00  0.00    +0.036 A 
ATOM     34  CZ  TYR A   4      16.570  11.572   8.720  0.00  0.00    +0.134 A 
ATOM     35  CE1 TYR A   4      17.362  11.785   7.602  0.00  0.00    +0.036 A 
ATOM     36  CD1 TYR A   4      18.734  11.692   7.713  0.00  0.00    -0.001 A 
BRANCH  34  37
ATOM     37  OH  TYR A   4      15.192  11.663   8.589  0.00  0.00    -0.506 OA
ATOM     38  HH  TYR A   4      14.950  12.572   8.280  0.00  0.00    +0.292 HD
ENDBRANCH  34  37
ENDBRANCH  30  31
ENDBRANCH  27  30
ENDBRANCH  24  27
ENDBRANCH   1  23
BRANCH   1  39
ATOM     39  CB  GLU A   3      20.959   6.818  12.365  0.00  0.00    +0.041 C 
BRANCH  39  40
ATOM     40  CG  GLU A   3      21.242   5.477  11.764  0.00  0.00    +0.116 C 
BRANCH  40  41
ATOM     41  CD  GLU A   3      22.348   4.723  12.518  0.00  0.00    +0.365 C 
ATOM     42  OE2 GLU A   3      22.053   3.693  13.154  0.00  0.00    -0.246 OA
ATOM     43  OE1 GLU A   3      23.522   5.119  12.394  0.00  0.00    -0.246 OA
ENDBRANCH  40  41
ENDBRANCH  39  40
ENDBRANCH   1  39
TORSDOF 19
REMARK  Name = ../refined-set-2016/2wec/2wec_pocket.pdb
REMARK  246 active torsions:
REMARK  status: ('A' for Active; 'I' for Inactive)
REMARK    1  A    between atoms: _1  and  _3
REMARK    2  A    between atoms: _3  and  _4
REMARK    3  A    between atoms: _3  and  _6
REMARK    4  A    between atoms: _6  and  _7
REMARK    5  A    between atoms: _10  and  _12
REMARK    6  A    between atoms: _12  and  _13
REMARK    7  A    between atoms: _12  and  _15
REMARK    8  A    between atoms: _15  and  _16
REMARK    9  A    between atoms: _19  and  _21
REMARK   10  A    between atoms: _21  and  _22
REMARK   11  A    between atoms: _21  and  _24
REMARK   12  A    between atoms: _24  and  _25
REMARK   13  A    between atoms: _25  and  _26
REMARK   14  A    between atoms: _29  and  _31
REMARK   15  A    between atoms: _31  and  _32
REMARK   16  A    between atoms: _31  and  _34
REMARK   17  A    between atoms: _34  and  _35
REMARK   18  A    between atoms: _35  and  _36
REMARK   19  A    between atoms: _39  and  _41
REMARK   20  A    between atoms: _41  and  _42
REMARK   21  A    between atoms: _41  and  _44
REMARK   22  A    between atoms: _44  and  _45
REMARK   23  A    between atoms: _50  and  _51
REMARK   24  A    between atoms: _53  and  _55
REMARK   25  A    between atoms: _55  and  _56
REMARK   26  A    between atoms: _55  and  _58
REMARK   27  A    between atoms: _58  and  _59
REMARK   28  A    between atoms: _64  and  _66
REMARK   29  A    between atoms: _66  and  _67
REMARK   30  A    between atoms: _66  and  _69
REMARK   31  A    between atoms: _69  and  _70
REMARK   32  A    between atoms: _73  and  _75
REMARK   33  A    between atoms: _75  and  _76
REMARK   34  A    between atoms: _75  and  _78
REMARK   35  A    between atoms: _78  and  _79
REMARK   36  A    between atoms: _82  and  _84
REMARK   37  A    between atoms: _84  and  _85
REMARK   38  A    between atoms: _87  and  _89
REMARK   39  A    between atoms: _89  and  _90
REMARK   40  A    between atoms: _89  and  _92
REMARK   41  A    between atoms: _92  and  _93
REMARK   42  A    between atoms: _95  and  _97
REMARK   43  A    between atoms: _97  and  _98
REMARK   44  A    between atoms: _97  and  _100
REMARK   45  A    between atoms: _100  and  _101
REMARK   46  A    between atoms: _104  and  _106
REMARK   47  A    between atoms: _106  and  _107
REMARK   48  A    between atoms: _106  and  _109
REMARK   49  A    between atoms: _109  and  _110
REMARK   50  A    between atoms: _112  and  _114
REMARK   51  A    between atoms: _114  and  _115
REMARK   52  A    between atoms: _114  and  _117
REMARK   53  A    between atoms: _117  and  _118
REMARK   54  A    between atoms: _123  and  _124
REMARK   55  A    between atoms: _126  and  _128
REMARK   56  A    between atoms: _128  and  _129
REMARK   57  A    between atoms: _131  and  _133
REMARK   58  A    between atoms: _133  and  _134
REMARK   59  A    between atoms: _133  and  _136
REMARK   60  A    between atoms: _136  and  _137
REMARK   61  A    between atoms: _140  and  _142
REMARK   62  A    between atoms: _142  and  _143
REMARK   63  A    between atoms: _145  and  _147
REMARK   64  A    between atoms: _147  and  _148
REMARK   65  A    between atoms: _147  and  _150
REMARK   66  A    between atoms: _150  and  _151
REMARK   67  A    between atoms: _153  and  _155
REMARK   68  A    between atoms: _155  and  _156
REMARK   69  A    between atoms: _155  and  _158
REMARK   70  A    between atoms: _158  and  _159
REMARK   71  A    between atoms: _159  and  _160
REMARK   72  A    between atoms: _165  and  _167
REMARK   73  A    between atoms: _167  and  _168
REMARK   74  A    between atoms: _167  and  _170
REMARK   75  A    between atoms: _170  and  _171
REMARK   76  A    between atoms: _177  and  _179
REMARK   77  A    between atoms: _179  and  _180
REMARK   78  A    between atoms: _179  and  _182
REMARK   79  A    between atoms: _182  and  _183
REMARK   80  A    between atoms: _186  and  _188
REMARK   81  A    between atoms: _188  and  _189
REMARK   82  A    between atoms: _188  and  _191
REMARK   83  A    between atoms: _191  and  _192
REMARK   84  A    between atoms: _197  and  _199
REMARK   85  A    between atoms: _199  and  _200
REMARK   86  A    between atoms: _199  and  _202
REMARK   87  A    between atoms: _202  and  _203
REMARK   88  A    between atoms: _208  and  _210
REMARK   89  A    between atoms: _210  and  _211
REMARK   90  A    between atoms: _210  and  _213
REMARK   91  A    between atoms: _213  and  _214
REMARK   92  A    between atoms: _217  and  _219
REMARK   93  A    between atoms: _219  and  _220
REMARK   94  A    between atoms: _223  and  _225
REMARK   95  A    between atoms: _225  and  _226
REMARK   96  A    between atoms: _225  and  _228
REMARK   97  A    between atoms: _228  and  _229
REMARK   98  A    between atoms: _232  and  _234
REMARK   99  A    between atoms: _234  and  _235
REMARK  100  A    between atoms: _234  and  _237
REMARK  101  A    between atoms: _237  and  _238
REMARK  102  A    between atoms: _244  and  _246
REMARK  103  A    between atoms: _246  and  _247
REMARK  104  A    between atoms: _246  and  _249
REMARK  105  A    between atoms: _249  and  _250
REMARK  106  A    between atoms: _253  and  _255
REMARK  107  A    between atoms: _255  and  _256
REMARK  108  A    between atoms: _255  and  _258
REMARK  109  A    between atoms: _258  and  _259
REMARK  110  A    between atoms: _262  and  _264
REMARK  111  A    between atoms: _264  and  _265
REMARK  112  A    between atoms: _264  and  _267
REMARK  113  A    between atoms: _267  and  _268
REMARK  114  A    between atoms: _271  and  _273
REMARK  115  A    between atoms: _273  and  _274
REMARK  116  A    between atoms: _276  and  _278
REMARK  117  A    between atoms: _278  and  _279
REMARK  118  A    between atoms: _278  and  _281
REMARK  119  A    between atoms: _281  and  _282
REMARK  120  A    between atoms: _285  and  _287
REMARK  121  A    between atoms: _287  and  _288
REMARK  122  A    between atoms: _287  and  _290
REMARK  123  A    between atoms: _290  and  _291
REMARK  124  A    between atoms: _294  and  _296
REMARK  125  A    between atoms: _296  and  _297
REMARK  126  A    between atoms: _296  and  _299
REMARK  127  A    between atoms: _299  and  _300
REMARK  128  A    between atoms: _303  and  _305
REMARK  129  A    between atoms: _305  and  _306
REMARK  130  A    between atoms: _305  and  _308
REMARK  131  A    between atoms: _308  and  _309
REMARK  132  A    between atoms: _312  and  _314
REMARK  133  A    between atoms: _314  and  _315
REMARK  134  A    between atoms: _314  and  _317
REMARK  135  A    between atoms: _317  and  _318
REMARK  136  A    between atoms: _321  and  _323
REMARK  137  A    between atoms: _323  and  _324
REMARK  138  A    between atoms: _323  and  _326
REMARK  139  A    between atoms: _326  and  _327
REMARK  140  A    between atoms: _330  and  _332
REMARK  141  A    between atoms: _332  and  _333
REMARK  142  A    between atoms: _332  and  _335
REMARK  143  A    between atoms: _335  and  _336
REMARK  144  A    between atoms: _338  and  _340
REMARK  145  A    between atoms: _340  and  _341
REMARK  146  A    between atoms: _340  and  _343
REMARK  147  A    between atoms: _343  and  _344
REMARK  148  A    between atoms: _349  and  _351
REMARK  149  A    between atoms: _351  and  _352
REMARK  150  A    between atoms: _355  and  _357
REMARK  151  A    between atoms: _357  and  _358
REMARK  152  A    between atoms: _360  and  _362
REMARK  153  A    between atoms: _362  and  _363
REMARK  154  A    between atoms: _365  and  _367
REMARK  155  A    between atoms: _367  and  _368
REMARK  156  A    between atoms: _367  and  _370
REMARK  157  A    between atoms: _370  and  _371
REMARK  158  A    between atoms: _376  and  _377
REMARK  159  A    between atoms: _379  and  _381
REMARK  160  A    between atoms: _381  and  _382
REMARK  161  A    between atoms: _381  and  _384
REMARK  162  A    between atoms: _384  and  _385
REMARK  163  A    between atoms: _390  and  _391
REMARK  164  A    between atoms: _393  and  _395
REMARK  165  A    between atoms: _395  and  _396
REMARK  166  A    between atoms: _395  and  _398
REMARK  167  A    between atoms: _398  and  _399
REMARK  168  A    between atoms: _401  and  _403
REMARK  169  A    between atoms: _403  and  _404
REMARK  170  A    between atoms: _403  and  _406
REMARK  171  A    between atoms: _406  and  _407
REMARK  172  A    between atoms: _410  and  _412
REMARK  173  A    between atoms: _412  and  _413
REMARK  174  A    between atoms: _415  and  _417
REMARK  175  A    between atoms: _417  and  _418
REMARK  176  A    between atoms: _420  and  _422
REMARK  177  A    between atoms: _422  and  _423
REMARK  178  A    between atoms: _422  and  _425
REMARK  179  A    between atoms: _425  and  _426
REMARK  180  A    between atoms: _429  and  _431
REMARK  181  A    between atoms: _431  and  _432
REMARK  182  A    between atoms: _431  and  _434
REMARK  183  A    between atoms: _434  and  _435
REMARK  184  A    between atoms: _435  and  _436
REMARK  185  A    between atoms: _441  and  _443
REMARK  186  A    between atoms: _443  and  _444
REMARK  187  A    between atoms: _443  and  _446
REMARK  188  A    between atoms: _446  and  _447
REMARK  189  A    between atoms: _449  and  _451
REMARK  190  A    between atoms: _451  and  _452
REMARK  191  A    between atoms: _451  and  _454
REMARK  192  A    between atoms: _454  and  _455
REMARK  193  A    between atoms: _460  and  _462
REMARK  194  A    between atoms: _462  and  _463
REMARK  195  A    between atoms: _462  and  _465
REMARK  196  A    between atoms: _465  and  _466
REMARK  197  A    between atoms: _468  and  _470
REMARK  198  A    between atoms: _470  and  _471
REMARK  199  A    between atoms: _473  and  _475
REMARK  200  A    between atoms: _475  and  _476
REMARK  201  A    between atoms: _475  and  _478
REMARK  202  A    between atoms: _478  and  _479
REMARK  203  A    between atoms: _482  and  _484
REMARK  204  A    between atoms: _484  and  _485
REMARK  205  A    between atoms: _484  and  _487
REMARK  206  A    between atoms: _487  and  _488
REMARK  207  A    between atoms: _494  and  _496
REMARK  208  A    between atoms: _496  and  _497
REMARK  209  A    between atoms: _496  and  _499
REMARK  210  A    between atoms: _499  and  _500
REMARK  211  A    between atoms: _502  and  _504
REMARK  212  A    between atoms: _504  and  _505
REMARK  213  A    between atoms: _504  and  _507
REMARK  214  A    between atoms: _507  and  _508
REMARK  215  A    between atoms: _511  and  _513
REMARK  216  A    between atoms: _513  and  _514
REMARK  217  A    between atoms: _516  and  _518
REMARK  218  A    between atoms: _518  and  _519
REMARK  219  A    between atoms: _518  and  _521
REMARK  220  A    between atoms: _521  and  _522
REMARK  221  A    between atoms: _525  and  _527
REMARK  222  A    between atoms: _527  and  _528
REMARK  223  A    between atoms: _527  and  _530
REMARK  224  A    between atoms: _530  and  _531
REMARK  225  A    between atoms: _533  and  _535
REMARK  226  A    between atoms: _535  and  _536
REMARK  227  A    between atoms: _538  and  _540
REMARK  228  A    between atoms: _540  and  _541
REMARK  229  A    between atoms: _540  and  _543
REMARK  230  A    between atoms: _543  and  _544
REMARK  231  A    between atoms: _549  and  _550
REMARK  232  A    between atoms: _552  and  _554
REMARK  233  A    between atoms: _554  and  _555
REMARK  234  A    between atoms: _554  and  _557
REMARK  235  A    between atoms: _557  and  _558
REMARK  236  A    between atoms: _561  and  _563
REMARK  237  A    between atoms: _563  and  _564
REMARK  238  A    between atoms: _563  and  _566
REMARK  239  A    between atoms: _566  and  _567
REMARK  240  A    between atoms: _567  and  _568
REMARK  241  A    between atoms: _574  and  _575
REMARK  242  A    between atoms: _580  and  _582
REMARK  243  A    between atoms: _582  and  _583
REMARK  244  A    between atoms: _582  and  _585
REMARK  245  A    between atoms: _585  and  _586
REMARK  246  A    between atoms: _586  and  _587
REMARK                            x       y       z     vdW  Elec       q    Type
REMARK                         _______ _______ _______ _____ _____    ______ ____
ROOT
ATOM      1  CB  ASN A   1      25.873   8.585  12.983  0.00  0.00    +0.110 C 
ENDROOT
BRANCH   1   2
ATOM      2  CG  ASN A   1      24.594   9.015  13.604  0.00  0.00    +0.221 C 
ATOM      3  ND2 ASN A   1      24.134   8.256  14.600  0.00  0.00    -0.329 N 
ATOM      4 HD21 ASN A   1      23.249   8.512  15.083  0.00  0.00    +0.145 HD
ATOM      5 HD22 ASN A   1      24.660   7.408  14.893  0.00  0.00    +0.145 HD
ATOM      6  OD1 ASN A   1      24.020  10.019  13.218  0.00  0.00    -0.275 OA
ENDBRANCH   1   2
BRANCH   1   7
ATOM      7  CA  ASN A   1      26.358   9.530  11.865  0.00  0.00    +0.142 C 
BRANCH   7   8
ATOM      8  N   ASN A   1      27.617   8.958  11.366  0.00  0.00    -0.239 NA
ATOM      9  H   ASN A   1      28.203   8.395  12.015  0.00  0.00    +0.142 HD
ENDBRANCH   7   8
BRANCH   7  10
ATOM     10  C   ASN A   1      26.742  10.919  12.453  0.00  0.00    +0.225 C 
ATOM     11  O   ASN A   1      27.542  10.972  13.374  0.00  0.00    -0.287 OA
ENDBRANCH   7  10
ENDBRANCH   1   7
TORSDOF 4
REMARK  Name = ../refined-set-2016/2wec/2wec_pocket.pdb
REMARK  246 active torsions:
REMARK  status: ('A' for Active; 'I' for Inactive)
REMARK    1  A    between atoms: _1  and  _3
REMARK    2  A    between atoms: _3  and  _4
REMARK    3  A    between atoms: _3  and  _6
REMARK    4  A    between atoms: _6  and  _7
REMARK    5  A    between atoms: _10  and  _12
REMARK    6  A    between atoms: _12  and  _13
REMARK    7  A    between atoms: _12  and  _15
REMARK    8  A    between atoms: _15  and  _16
REMARK    9  A    between atoms: _19  and  _21
REMARK   10  A    between atoms: _21  and  _22
REMARK   11  A    between atoms: _21  and  _24
REMARK   12  A    between atoms: _24  and  _25
REMARK   13  A    between atoms: _25  and  _26
REMARK   14  A    between atoms: _29  and  _31
REMARK   15  A    between atoms: _31  and  _32
REMARK   16  A    between atoms: _31  and  _34
REMARK   17  A    between atoms: _34  and  _35
REMARK   18  A    between atoms: _35  and  _36
REMARK   19  A    between atoms: _39  and  _41
REMARK   20  A    between atoms: _41  and  _42
REMARK   21  A    between atoms: _41  and  _44
REMARK   22  A    between atoms: _44  and  _45
REMARK   23  A    between atoms: _50  and  _51
REMARK   24  A    between atoms: _53  and  _55
REMARK   25  A    between atoms: _55  and  _56
REMARK   26  A    between atoms: _55  and  _58
REMARK   27  A    between atoms: _58  and  _59
REMARK   28  A    between atoms: _64  and  _66
REMARK   29  A    between atoms: _66  and  _67
REMARK   30  A    between atoms: _66  and  _69
REMARK   31  A    between atoms: _69  and  _70
REMARK   32  A    between atoms: _73  and  _75
REMARK   33  A    between atoms: _75  and  _76
REMARK   34  A    between atoms: _75  and  _78
REMARK   35  A    between atoms: _78  and  _79
REMARK   36  A    between atoms: _82  and  _84
REMARK   37  A    between atoms: _84  and  _85
REMARK   38  A    between atoms: _87  and  _89
REMARK   39  A    between atoms: _89  and  _90
REMARK   40  A    between atoms: _89  and  _92
REMARK   41  A    between atoms: _92  and  _93
REMARK   42  A    between atoms: _95  and  _97
REMARK   43  A    between atoms: _97  and  _98
REMARK   44  A    between atoms: _97  and  _100
REMARK   45  A    between atoms: _100  and  _101
REMARK   46  A    between atoms: _104  and  _106
REMARK   47  A    between atoms: _106  and  _107
REMARK   48  A    between atoms: _106  and  _109
REMARK   49  A    between atoms: _109  and  _110
REMARK   50  A    between atoms: _112  and  _114
REMARK   51  A    between atoms: _114  and  _115
REMARK   52  A    between atoms: _114  and  _117
REMARK   53  A    between atoms: _117  and  _118
REMARK   54  A    between atoms: _123  and  _124
REMARK   55  A    between atoms: _126  and  _128
REMARK   56  A    between atoms: _128  and  _129
REMARK   57  A    between atoms: _131  and  _133
REMARK   58  A    between atoms: _133  and  _134
REMARK   59  A    between atoms: _133  and  _136
REMARK   60  A    between atoms: _136  and  _137
REMARK   61  A    between atoms: _140  and  _142
REMARK   62  A    between atoms: _142  and  _143
REMARK   63  A    between atoms: _145  and  _147
REMARK   64  A    between atoms: _147  and  _148
REMARK   65  A    between atoms: _147  and  _150
REMARK   66  A    between atoms: _150  and  _151
REMARK   67  A    between atoms: _153  and  _155
REMARK   68  A    between atoms: _155  and  _156
REMARK   69  A    between atoms: _155  and  _158
REMARK   70  A    between atoms: _158  and  _159
REMARK   71  A    between atoms: _159  and  _160
REMARK   72  A    between atoms: _165  and  _167
REMARK   73  A    between atoms: _167  and  _168
REMARK   74  A    between atoms: _167  and  _170
REMARK   75  A    between atoms: _170  and  _171
REMARK   76  A    between atoms: _177  and  _179
REMARK   77  A    between atoms: _179  and  _180
REMARK   78  A    between atoms: _179  and  _182
REMARK   79  A    between atoms: _182  and  _183
REMARK   80  A    between atoms: _186  and  _188
REMARK   81  A    between atoms: _188  and  _189
REMARK   82  A    between atoms: _188  and  _191
REMARK   83  A    between atoms: _191  and  _192
REMARK   84  A    between atoms: _197  and  _199
REMARK   85  A    between atoms: _199  and  _200
REMARK   86  A    between atoms: _199  and  _202
REMARK   87  A    between atoms: _202  and  _203
REMARK   88  A    between atoms: _208  and  _210
REMARK   89  A    between atoms: _210  and  _211
REMARK   90  A    between atoms: _210  and  _213
REMARK   91  A    between atoms: _213  and  _214
REMARK   92  A    between atoms: _217  and  _219
REMARK   93  A    between atoms: _219  and  _220
REMARK   94  A    between atoms: _223  and  _225
REMARK   95  A    between atoms: _225  and  _226
REMARK   96  A    between atoms: _225  and  _228
REMARK   97  A    between atoms: _228  and  _229
REMARK   98  A    between atoms: _232  and  _234
REMARK   99  A    between atoms: _234  and  _235
REMARK  100  A    between atoms: _234  and  _237
REMARK  101  A    between atoms: _237  and  _238
REMARK  102  A    between atoms: _244  and  _246
REMARK  103  A    between atoms: _246  and  _247
REMARK  104  A    between atoms: _246  and  _249
REMARK  105  A    between atoms: _249  and  _250
REMARK  106  A    between atoms: _253  and  _255
REMARK  107  A    between atoms: _255  and  _256
REMARK  108  A    between atoms: _255  and  _258
REMARK  109  A    between atoms: _258  and  _259
REMARK  110  A    between atoms: _262  and  _264
REMARK  111  A    between atoms: _264  and  _265
REMARK  112  A    between atoms: _264  and  _267
REMARK  113  A    between atoms: _267  and  _268
REMARK  114  A    between atoms: _271  and  _273
REMARK  115  A    between atoms: _273  and  _274
REMARK  116  A    between atoms: _276  and  _278
REMARK  117  A    between atoms: _278  and  _279
REMARK  118  A    between atoms: _278  and  _281
REMARK  119  A    between atoms: _281  and  _282
REMARK  120  A    between atoms: _285  and  _287
REMARK  121  A    between atoms: _287  and  _288
REMARK  122  A    between atoms: _287  and  _290
REMARK  123  A    between atoms: _290  and  _291
REMARK  124  A    between atoms: _294  and  _296
REMARK  125  A    between atoms: _296  and  _297
REMARK  126  A    between atoms: _296  and  _299
REMARK  127  A    between atoms: _299  and  _300
REMARK  128  A    between atoms: _303  and  _305
REMARK  129  A    between atoms: _305  and  _306
REMARK  130  A    between atoms: _305  and  _308
REMARK  131  A    between atoms: _308  and  _309
REMARK  132  A    between atoms: _312  and  _314
REMARK  133  A    between atoms: _314  and  _315
REMARK  134  A    between atoms: _314  and  _317
REMARK  135  A    between atoms: _317  and  _318
REMARK  136  A    between atoms: _321  and  _323
REMARK  137  A    between atoms: _323  and  _324
REMARK  138  A    between atoms: _323  and  _326
REMARK  139  A    between atoms: _326  and  _327
REMARK  140  A    between atoms: _330  and  _332
REMARK  141  A    between atoms: _332  and  _333
REMARK  142  A    between atoms: _332  and  _335
REMARK  143  A    between atoms: _335  and  _336
REMARK  144  A    between atoms: _338  and  _340
REMARK  145  A    between atoms: _340  and  _341
REMARK  146  A    between atoms: _340  and  _343
REMARK  147  A    between atoms: _343  and  _344
REMARK  148  A    between atoms: _349  and  _351
REMARK  149  A    between atoms: _351  and  _352
REMARK  150  A    between atoms: _355  and  _357
REMARK  151  A    between atoms: _357  and  _358
REMARK  152  A    between atoms: _360  and  _362
REMARK  153  A    between atoms: _362  and  _363
REMARK  154  A    between atoms: _365  and  _367
REMARK  155  A    between atoms: _367  and  _368
REMARK  156  A    between atoms: _367  and  _370
REMARK  157  A    between atoms: _370  and  _371
REMARK  158  A    between atoms: _376  and  _377
REMARK  159  A    between atoms: _379  and  _381
REMARK  160  A    between atoms: _381  and  _382
REMARK  161  A    between atoms: _381  and  _384
REMARK  162  A    between atoms: _384  and  _385
REMARK  163  A    between atoms: _390  and  _391
REMARK  164  A    between atoms: _393  and  _395
REMARK  165  A    between atoms: _395  and  _396
REMARK  166  A    between atoms: _395  and  _398
REMARK  167  A    between atoms: _398  and  _399
REMARK  168  A    between atoms: _401  and  _403
REMARK  169  A    between atoms: _403  and  _404
REMARK  170  A    between atoms: _403  and  _406
REMARK  171  A    between atoms: _406  and  _407
REMARK  172  A    between atoms: _410  and  _412
REMARK  173  A    between atoms: _412  and  _413
REMARK  174  A    between atoms: _415  and  _417
REMARK  175  A    between atoms: _417  and  _418
REMARK  176  A    between atoms: _420  and  _422
REMARK  177  A    between atoms: _422  and  _423
REMARK  178  A    between atoms: _422  and  _425
REMARK  179  A    between atoms: _425  and  _426
REMARK  180  A    between atoms: _429  and  _431
REMARK  181  A    between atoms: _431  and  _432
REMARK  182  A    between atoms: _431  and  _434
REMARK  183  A    between atoms: _434  and  _435
REMARK  184  A    between atoms: _435  and  _436
REMARK  185  A    between atoms: _441  and  _443
REMARK  186  A    between atoms: _443  and  _444
REMARK  187  A    between atoms: _443  and  _446
REMARK  188  A    between atoms: _446  and  _447
REMARK  189  A    between atoms: _449  and  _451
REMARK  190  A    between atoms: _451  and  _452
REMARK  191  A    between atoms: _451  and  _454
REMARK  192  A    between atoms: _454  and  _455
REMARK  193  A    between atoms: _460  and  _462
REMARK  194  A    between atoms: _462  and  _463
REMARK  195  A    between atoms: _462  and  _465
REMARK  196  A    between atoms: _465  and  _466
REMARK  197  A    between atoms: _468  and  _470
REMARK  198  A    between atoms: _470  and  _471
REMARK  199  A    between atoms: _473  and  _475
REMARK  200  A    between atoms: _475  and  _476
REMARK  201  A    between atoms: _475  and  _478
REMARK  202  A    between atoms: _478  and  _479
REMARK  203  A    between atoms: _482  and  _484
REMARK  204  A    between atoms: _484  and  _485
REMARK  205  A    between atoms: _484  and  _487
REMARK  206  A    between atoms: _487  and  _488
REMARK  207  A    between atoms: _494  and  _496
REMARK  208  A    between atoms: _496  and  _497
REMARK  209  A    between atoms: _496  and  _499
REMARK  210  A    between atoms: _499  and  _500
REMARK  211  A    between atoms: _502  and  _504
REMARK  212  A    between atoms: _504  and  _505
REMARK  213  A    between atoms: _504  and  _507
REMARK  214  A    between atoms: _507  and  _508
REMARK  215  A    between atoms: _511  and  _513
REMARK  216  A    between atoms: _513  and  _514
REMARK  217  A    between atoms: _516  and  _518
REMARK  218  A    between atoms: _518  and  _519
REMARK  219  A    between atoms: _518  and  _521
REMARK  220  A    between atoms: _521  and  _522
REMARK  221  A    between atoms: _525  and  _527
REMARK  222  A    between atoms: _527  and  _528
REMARK  223  A    between atoms: _527  and  _530
REMARK  224  A    between atoms: _530  and  _531
REMARK  225  A    between atoms: _533  and  _535
REMARK  226  A    between atoms: _535  and  _536
REMARK  227  A    between atoms: _538  and  _540
REMARK  228  A    between atoms: _540  and  _541
REMARK  229  A    between atoms: _540  and  _543
REMARK  230  A    between atoms: _543  and  _544
REMARK  231  A    between atoms: _549  and  _550
REMARK  232  A    between atoms: _552  and  _554
REMARK  233  A    between atoms: _554  and  _555
REMARK  234  A    between atoms: _554  and  _557
REMARK  235  A    between atoms: _557  and  _558
REMARK  236  A    between atoms: _561  and  _563
REMARK  237  A    between atoms: _563  and  _564
REMARK  238  A    between atoms: _563  and  _566
REMARK  239  A    between atoms: _566  and  _567
REMARK  240  A    between atoms: _567  and  _568
REMARK  241  A    between atoms: _574  and  _575
REMARK  242  A    between atoms: _580  and  _582
REMARK  243  A    between atoms: _582  and  _583
REMARK  244  A    between atoms: _582  and  _585
REMARK  245  A    between atoms: _585  and  _586
REMARK  246  A    between atoms: _586  and  _587
REMARK                            x       y       z     vdW  Elec       q    Type
REMARK                         _______ _______ _______ _____ _____    ______ ____
ROOT
ATOM      1  CA  THR A   2      24.946  17.668  17.264  0.00  0.00    +0.176 C 
ENDROOT
BRANCH   1   4
ATOM      2  C   ASP A   1      25.776  15.449  16.707  0.00  0.00    +0.239 C 
ATOM      3  O   ASP A   1      26.817  15.667  17.329  0.00  0.00    -0.274 OA
ATOM      4  N   THR A   2      24.795  16.357  16.619  0.00  0.00    -0.295 N 
ATOM      5  H   THR A   2      23.926  16.134  16.094  0.00  0.00    +0.150 HD
BRANCH   2   6
ATOM      6  CA  ASP A   1      25.521  14.097  16.015  0.00  0.00    +0.156 C 
BRANCH   6   7
ATOM      7  N   ASP A   1      26.248  13.957  14.773  0.00  0.00    -0.238 NA
ATOM      8  H   ASP A   1      27.274  14.126  14.767  0.00  0.00    +0.142 HD
ENDBRANCH   6   7
BRANCH   6   9
ATOM      9  CB  ASP A   1      26.007  12.933  16.904  0.00  0.00    +0.140 C 
BRANCH   9  10
ATOM     10  CG  ASP A   1      25.359  12.911  18.249  0.00  0.00    +0.367 C 
ATOM     11  OD2 ASP A   1      25.889  12.200  19.131  0.00  0.00    -0.246 OA
ATOM     12  OD1 ASP A   1      24.350  13.614  18.451  0.00  0.00    -0.246 OA
ENDBRANCH   9  10
ENDBRANCH   6   9
ENDBRANCH   2   6
ENDBRANCH   1   4
BRANCH   1  13
ATOM     13  C   THR A   2      24.812  17.599  18.785  0.00  0.00    +0.243 C 
ATOM     14  O   THR A   2      24.884  18.641  19.477  0.00  0.00    -0.273 OA
ATOM     15  N   GLY A   3      24.576  16.392  19.293  0.00  0.00    -0.295 N 
ATOM     16  H   GLY A   3      24.475  15.589  18.640  0.00  0.00    +0.150 HD
BRANCH  15  17
ATOM     17  CA  GLY A   3      24.454  16.148  20.718  0.00  0.00    +0.176 C 
BRANCH  17  18
ATOM     18  C   GLY A   3      25.744  15.646  21.398  0.00  0.00    +0.243 C 
ATOM     19  O   GLY A   3      25.750  15.401  22.595  0.00  0.00    -0.273 OA
ATOM     20  N   SER A   4      26.825  15.476  20.651  0.00  0.00    -0.296 N 
ATOM     21  H   SER A   4      26.779  15.650  19.627  0.00  0.00    +0.150 HD
BRANCH  20  22
ATOM     22  CA  SER A   4      28.094  15.040  21.267  0.00  0.00    +0.166 C 
BRANCH  22  23
ATOM     23  C   SER A   4      29.217  15.752  20.523  0.00  0.00    +0.229 C 
ATOM     24  O   SER A   4      28.998  16.337  19.439  0.00  0.00    -0.286 OA
ENDBRANCH  22  23
BRANCH  22  25
ATOM     25  CB  SER A   4      28.262  13.513  21.266  0.00  0.00    +0.165 C 
BRANCH  25  26
ATOM     26  OG  SER A   4      28.420  13.062  19.953  0.00  0.00    -0.380 OA
ATOM     27  H   SER A   4      27.621  13.307  19.423  0.00  0.00    +0.211 HD
ENDBRANCH  25  26
ENDBRANCH  22  25
ENDBRANCH  20  22
ENDBRANCH  17  18
ENDBRANCH  15  17
ENDBRANCH   1  13
BRANCH   1  28
ATOM     28  CB  THR A   2      23.994  18.738  16.695  0.00  0.00    +0.137 C 
ATOM     29  CG2 THR A   2      24.261  18.946  15.228  0.00  0.00    +0.034 C 
BRANCH  28  30
ATOM     30  OG1 THR A   2      22.634  18.291  16.874  0.00  0.00    -0.382 OA
ATOM     31  HG1 THR A   2      22.455  18.160  17.839  0.00  0.00    +0.210 HD
ENDBRANCH  28  30
ENDBRANCH   1  28
TORSDOF 14
REMARK  Name = ../refined-set-2016/2wec/2wec_pocket.pdb
REMARK  246 active torsions:
REMARK  status: ('A' for Active; 'I' for Inactive)
REMARK    1  A    between atoms: _1  and  _3
REMARK    2  A    between atoms: _3  and  _4
REMARK    3  A    between atoms: _3  and  _6
REMARK    4  A    between atoms: _6  and  _7
REMARK    5  A    between atoms: _10  and  _12
REMARK    6  A    between atoms: _12  and  _13
REMARK    7  A    between atoms: _12  and  _15
REMARK    8  A    between atoms: _15  and  _16
REMARK    9  A    between atoms: _19  and  _21
REMARK   10  A    between atoms: _21  and  _22
REMARK   11  A    between atoms: _21  and  _24
REMARK   12  A    between atoms: _24  and  _25
REMARK   13  A    between atoms: _25  and  _26
REMARK   14  A    between atoms: _29  and  _31
REMARK   15  A    between atoms: _31  and  _32
REMARK   16  A    between atoms: _31  and  _34
REMARK   17  A    between atoms: _34  and  _35
REMARK   18  A    between atoms: _35  and  _36
REMARK   19  A    between atoms: _39  and  _41
REMARK   20  A    between atoms: _41  and  _42
REMARK   21  A    between atoms: _41  and  _44
REMARK   22  A    between atoms: _44  and  _45
REMARK   23  A    between atoms: _50  and  _51
REMARK   24  A    between atoms: _53  and  _55
REMARK   25  A    between atoms: _55  and  _56
REMARK   26  A    between atoms: _55  and  _58
REMARK   27  A    between atoms: _58  and  _59
REMARK   28  A    between atoms: _64  and  _66
REMARK   29  A    between atoms: _66  and  _67
REMARK   30  A    between atoms: _66  and  _69
REMARK   31  A    between atoms: _69  and  _70
REMARK   32  A    between atoms: _73  and  _75
REMARK   33  A    between atoms: _75  and  _76
REMARK   34  A    between atoms: _75  and  _78
REMARK   35  A    between atoms: _78  and  _79
REMARK   36  A    between atoms: _82  and  _84
REMARK   37  A    between atoms: _84  and  _85
REMARK   38  A    between atoms: _87  and  _89
REMARK   39  A    between atoms: _89  and  _90
REMARK   40  A    between atoms: _89  and  _92
REMARK   41  A    between atoms: _92  and  _93
REMARK   42  A    between atoms: _95  and  _97
REMARK   43  A    between atoms: _97  and  _98
REMARK   44  A    between atoms: _97  and  _100
REMARK   45  A    between atoms: _100  and  _101
REMARK   46  A    between atoms: _104  and  _106
REMARK   47  A    between atoms: _106  and  _107
REMARK   48  A    between atoms: _106  and  _109
REMARK   49  A    between atoms: _109  and  _110
REMARK   50  A    between atoms: _112  and  _114
REMARK   51  A    between atoms: _114  and  _115
REMARK   52  A    between atoms: _114  and  _117
REMARK   53  A    between atoms: _117  and  _118
REMARK   54  A    between atoms: _123  and  _124
REMARK   55  A    between atoms: _126  and  _128
REMARK   56  A    between atoms: _128  and  _129
REMARK   57  A    between atoms: _131  and  _133
REMARK   58  A    between atoms: _133  and  _134
REMARK   59  A    between atoms: _133  and  _136
REMARK   60  A    between atoms: _136  and  _137
REMARK   61  A    between atoms: _140  and  _142
REMARK   62  A    between atoms: _142  and  _143
REMARK   63  A    between atoms: _145  and  _147
REMARK   64  A    between atoms: _147  and  _148
REMARK   65  A    between atoms: _147  and  _150
REMARK   66  A    between atoms: _150  and  _151
REMARK   67  A    between atoms: _153  and  _155
REMARK   68  A    between atoms: _155  and  _156
REMARK   69  A    between atoms: _155  and  _158
REMARK   70  A    between atoms: _158  and  _159
REMARK   71  A    between atoms: _159  and  _160
REMARK   72  A    between atoms: _165  and  _167
REMARK   73  A    between atoms: _167  and  _168
REMARK   74  A    between atoms: _167  and  _170
REMARK   75  A    between atoms: _170  and  _171
REMARK   76  A    between atoms: _177  and  _179
REMARK   77  A    between atoms: _179  and  _180
REMARK   78  A    between atoms: _179  and  _182
REMARK   79  A    between atoms: _182  and  _183
REMARK   80  A    between atoms: _186  and  _188
REMARK   81  A    between atoms: _188  and  _189
REMARK   82  A    between atoms: _188  and  _191
REMARK   83  A    between atoms: _191  and  _192
REMARK   84  A    between atoms: _197  and  _199
REMARK   85  A    between atoms: _199  and  _200
REMARK   86  A    between atoms: _199  and  _202
REMARK   87  A    between atoms: _202  and  _203
REMARK   88  A    between atoms: _208  and  _210
REMARK   89  A    between atoms: _210  and  _211
REMARK   90  A    between atoms: _210  and  _213
REMARK   91  A    between atoms: _213  and  _214
REMARK   92  A    between atoms: _217  and  _219
REMARK   93  A    between atoms: _219  and  _220
REMARK   94  A    between atoms: _223  and  _225
REMARK   95  A    between atoms: _225  and  _226
REMARK   96  A    between atoms: _225  and  _228
REMARK   97  A    between atoms: _228  and  _229
REMARK   98  A    between atoms: _232  and  _234
REMARK   99  A    between atoms: _234  and  _235
REMARK  100  A    between atoms: _234  and  _237
REMARK  101  A    between atoms: _237  and  _238
REMARK  102  A    between atoms: _244  and  _246
REMARK  103  A    between atoms: _246  and  _247
REMARK  104  A    between atoms: _246  and  _249
REMARK  105  A    between atoms: _249  and  _250
REMARK  106  A    between atoms: _253  and  _255
REMARK  107  A    between atoms: _255  and  _256
REMARK  108  A    between atoms: _255  and  _258
REMARK  109  A    between atoms: _258  and  _259
REMARK  110  A    between atoms: _262  and  _264
REMARK  111  A    between atoms: _264  and  _265
REMARK  112  A    between atoms: _264  and  _267
REMARK  113  A    between atoms: _267  and  _268
REMARK  114  A    between atoms: _271  and  _273
REMARK  115  A    between atoms: _273  and  _274
REMARK  116  A    between atoms: _276  and  _278
REMARK  117  A    between atoms: _278  and  _279
REMARK  118  A    between atoms: _278  and  _281
REMARK  119  A    between atoms: _281  and  _282
REMARK  120  A    between atoms: _285  and  _287
REMARK  121  A    between atoms: _287  and  _288
REMARK  122  A    between atoms: _287  and  _290
REMARK  123  A    between atoms: _290  and  _291
REMARK  124  A    between atoms: _294  and  _296
REMARK  125  A    between atoms: _296  and  _297
REMARK  126  A    between atoms: _296  and  _299
REMARK  127  A    between atoms: _299  and  _300
REMARK  128  A    between atoms: _303  and  _305
REMARK  129  A    between atoms: _305  and  _306
REMARK  130  A    between atoms: _305  and  _308
REMARK  131  A    between atoms: _308  and  _309
REMARK  132  A    between atoms: _312  and  _314
REMARK  133  A    between atoms: _314  and  _315
REMARK  134  A    between atoms: _314  and  _317
REMARK  135  A    between atoms: _317  and  _318
REMARK  136  A    between atoms: _321  and  _323
REMARK  137  A    between atoms: _323  and  _324
REMARK  138  A    between atoms: _323  and  _326
REMARK  139  A    between atoms: _326  and  _327
REMARK  140  A    between atoms: _330  and  _332
REMARK  141  A    between atoms: _332  and  _333
REMARK  142  A    between atoms: _332  and  _335
REMARK  143  A    between atoms: _335  and  _336
REMARK  144  A    between atoms: _338  and  _340
REMARK  145  A    between atoms: _340  and  _341
REMARK  146  A    between atoms: _340  and  _343
REMARK  147  A    between atoms: _343  and  _344
REMARK  148  A    between atoms: _349  and  _351
REMARK  149  A    between atoms: _351  and  _352
REMARK  150  A    between atoms: _355  and  _357
REMARK  151  A    between atoms: _357  and  _358
REMARK  152  A    between atoms: _360  and  _362
REMARK  153  A    between atoms: _362  and  _363
REMARK  154  A    between atoms: _365  and  _367
REMARK  155  A    between atoms: _367  and  _368
REMARK  156  A    between atoms: _367  and  _370
REMARK  157  A    between atoms: _370  and  _371
REMARK  158  A    between atoms: _376  and  _377
REMARK  159  A    between atoms: _379  and  _381
REMARK  160  A    between atoms: _381  and  _382
REMARK  161  A    between atoms: _381  and  _384
REMARK  162  A    between atoms: _384  and  _385
REMARK  163  A    between atoms: _390  and  _391
REMARK  164  A    between atoms: _393  and  _395
REMARK  165  A    between atoms: _395  and  _396
REMARK  166  A    between atoms: _395  and  _398
REMARK  167  A    between atoms: _398  and  _399
REMARK  168  A    between atoms: _401  and  _403
REMARK  169  A    between atoms: _403  and  _404
REMARK  170  A    between atoms: _403  and  _406
REMARK  171  A    between atoms: _406  and  _407
REMARK  172  A    between atoms: _410  and  _412
REMARK  173  A    between atoms: _412  and  _413
REMARK  174  A    between atoms: _415  and  _417
REMARK  175  A    between atoms: _417  and  _418
REMARK  176  A    between atoms: _420  and  _422
REMARK  177  A    between atoms: _422  and  _423
REMARK  178  A    between atoms: _422  and  _425
REMARK  179  A    between atoms: _425  and  _426
REMARK  180  A    between atoms: _429  and  _431
REMARK  181  A    between atoms: _431  and  _432
REMARK  182  A    between atoms: _431  and  _434
REMARK  183  A    between atoms: _434  and  _435
REMARK  184  A    between atoms: _435  and  _436
REMARK  185  A    between atoms: _441  and  _443
REMARK  186  A    between atoms: _443  and  _444
REMARK  187  A    between atoms: _443  and  _446
REMARK  188  A    between atoms: _446  and  _447
REMARK  189  A    between atoms: _449  and  _451
REMARK  190  A    between atoms: _451  and  _452
REMARK  191  A    between atoms: _451  and  _454
REMARK  192  A    between atoms: _454  and  _455
REMARK  193  A    between atoms: _460  and  _462
REMARK  194  A    between atoms: _462  and  _463
REMARK  195  A    between atoms: _462  and  _465
REMARK  196  A    between atoms: _465  and  _466
REMARK  197  A    between atoms: _468  and  _470
REMARK  198  A    between atoms: _470  and  _471
REMARK  199  A    between atoms: _473  and  _475
REMARK  200  A    between atoms: _475  and  _476
REMARK  201  A    between atoms: _475  and  _478
REMARK  202  A    between atoms: _478  and  _479
REMARK  203  A    between atoms: _482  and  _484
REMARK  204  A    between atoms: _484  and  _485
REMARK  205  A    between atoms: _484  and  _487
REMARK  206  A    between atoms: _487  and  _488
REMARK  207  A    between atoms: _494  and  _496
REMARK  208  A    between atoms: _496  and  _497
REMARK  209  A    between atoms: _496  and  _499
REMARK  210  A    between atoms: _499  and  _500
REMARK  211  A    between atoms: _502  and  _504
REMARK  212  A    between atoms: _504  and  _505
REMARK  213  A    between atoms: _504  and  _507
REMARK  214  A    between atoms: _507  and  _508
REMARK  215  A    between atoms: _511  and  _513
REMARK  216  A    between atoms: _513  and  _514
REMARK  217  A    between atoms: _516  and  _518
REMARK  218  A    between atoms: _518  and  _519
REMARK  219  A    between atoms: _518  and  _521
REMARK  220  A    between atoms: _521  and  _522
REMARK  221  A    between atoms: _525  and  _527
REMARK  222  A    between atoms: _527  and  _528
REMARK  223  A    between atoms: _527  and  _530
REMARK  224  A    between atoms: _530  and  _531
REMARK  225  A    between atoms: _533  and  _535
REMARK  226  A    between atoms: _535  and  _536
REMARK  227  A    between atoms: _538  and  _540
REMARK  228  A    between atoms: _540  and  _541
REMARK  229  A    between atoms: _540  and  _543
REMARK  230  A    between atoms: _543  and  _544
REMARK  231  A    between atoms: _549  and  _550
REMARK  232  A    between atoms: _552  and  _554
REMARK  233  A    between atoms: _554  and  _555
REMARK  234  A    between atoms: _554  and  _557
REMARK  235  A    between atoms: _557  and  _558
REMARK  236  A    between atoms: _561  and  _563
REMARK  237  A    between atoms: _563  and  _564
REMARK  238  A    between atoms: _563  and  _566
REMARK  239  A    between atoms: _566  and  _567
REMARK  240  A    between atoms: _567  and  _568
REMARK  241  A    between atoms: _574  and  _575
REMARK  242  A    between atoms: _580  and  _582
REMARK  243  A    between atoms: _582  and  _583
REMARK  244  A    between atoms: _582  and  _585
REMARK  245  A    between atoms: _585  and  _586
REMARK  246  A    between atoms: _586  and  _587
REMARK                            x       y       z     vdW  Elec       q    Type
REMARK                         _______ _______ _______ _____ _____    ______ ____
ROOT
ATOM      1  CA  TYR A   3      25.519   8.022  25.150  0.00  0.00    +0.153 C 
ENDROOT
BRANCH   1   4
ATOM      2  C   SER A   2      27.581   7.989  26.448  0.00  0.00    +0.243 C 
ATOM      3  O   SER A   2      27.561   9.199  26.631  0.00  0.00    -0.273 OA
ATOM      4  N   TYR A   3      26.679   7.346  25.714  0.00  0.00    -0.297 N 
ATOM      5  H   TYR A   3      26.805   6.329  25.537  0.00  0.00    +0.150 HD
BRANCH   2   6
ATOM      6  CA  SER A   2      28.736   7.154  26.964  0.00  0.00    +0.178 C 
BRANCH   6   8
ATOM      7  C   ILE A   1      30.990   7.282  26.074  0.00  0.00    +0.238 C 
ATOM      8  N   SER A   2      29.950   7.872  26.637  0.00  0.00    -0.295 N 
ATOM      9  H   SER A   2      30.006   8.888  26.853  0.00  0.00    +0.150 HD
ATOM     10  O   ILE A   1      31.033   6.078  25.812  0.00  0.00    -0.274 OA
BRANCH   7  11
ATOM     11  CA  ILE A   1      32.159   8.195  25.797  0.00  0.00    +0.145 C 
BRANCH  11  12
ATOM     12  N   ILE A   1      33.429   7.473  25.875  0.00  0.00    -0.238 NA
ATOM     13  H   ILE A   1      33.544   6.557  25.397  0.00  0.00    +0.142 HD
ENDBRANCH  11  12
BRANCH  11  14
ATOM     14  CB  ILE A   1      31.995   8.913  24.421  0.00  0.00    +0.025 C 
ATOM     15  CG2 ILE A   1      31.780   7.899  23.308  0.00  0.00    +0.002 C 
BRANCH  14  16
ATOM     16  CG1 ILE A   1      30.799   9.877  24.447  0.00  0.00    +0.002 C 
ATOM     17  CD1 ILE A   1      30.863  10.882  23.289  0.00  0.00    +0.000 C 
ENDBRANCH  14  16
ENDBRANCH  11  14
ENDBRANCH   7  11
ENDBRANCH   6   8
BRANCH   6  18
ATOM     18  CB  SER A   2      28.636   6.997  28.472  0.00  0.00    +0.166 C 
BRANCH  18  19
ATOM     19  OG  SER A   2      29.640   6.107  28.930  0.00  0.00    -0.380 OA
ATOM     20  H   SER A   2      29.569   6.009  29.913  0.00  0.00    +0.211 HD
ENDBRANCH  18  19
ENDBRANCH   6  18
ENDBRANCH   2   6
ENDBRANCH   1   4
BRANCH   1  21
ATOM     21  C   TYR A   3      24.258   7.746  25.926  0.00  0.00    +0.241 C 
ATOM     22  O   TYR A   3      24.176   6.734  26.657  0.00  0.00    -0.273 OA
ATOM     23  N   GLY A   4      23.267   8.626  25.718  0.00  0.00    -0.295 N 
ATOM     24  H   GLY A   4      23.436   9.410  25.056  0.00  0.00    +0.150 HD
BRANCH  23  25
ATOM     25  CA  GLY A   4      21.980   8.542  26.363  0.00  0.00    +0.176 C 
BRANCH  25  26
ATOM     26  C   GLY A   4      21.286   7.198  26.176  0.00  0.00    +0.243 C 
ATOM     27  O   GLY A   4      20.663   6.675  27.118  0.00  0.00    -0.273 OA
ATOM     28  N   ASP A   5      21.405   6.615  24.986  0.00  0.00    -0.296 N 
ATOM     29  H   ASP A   5      21.944   7.079  24.227  0.00  0.00    +0.150 HD
BRANCH  28  30
ATOM     30  CA  ASP A   5      20.777   5.326  24.755  0.00  0.00    +0.160 C 
BRANCH  30  31
ATOM     31  C   ASP A   5      21.496   4.148  25.429  0.00  0.00    +0.241 C 
ATOM     32  N   GLY A   6      22.557   4.449  26.177  0.00  0.00    -0.295 N 
ATOM     33  H   GLY A   6      22.859   5.441  26.251  0.00  0.00    +0.150 HD
ATOM     34  O   ASP A   5      21.087   2.993  25.289  0.00  0.00    -0.273 OA
BRANCH  32  35
ATOM     35  CA  GLY A   6      23.313   3.414  26.902  0.00  0.00    +0.176 C 
BRANCH  35  36
ATOM     36  C   GLY A   6      24.514   2.805  26.182  0.00  0.00    +0.243 C 
ATOM     37  O   GLY A   6      25.224   1.954  26.724  0.00  0.00    -0.273 OA
ATOM     38  N   SER A   7      24.757   3.230  24.959  0.00  0.00    -0.296 N 
ATOM     39  H   SER A   7      24.147   3.945  24.514  0.00  0.00    +0.150 HD
BRANCH  38  40
ATOM     40  CA  SER A   7      25.883   2.685  24.254  0.00  0.00    +0.166 C 
BRANCH  40  41
ATOM     41  CB  SER A   7      27.152   3.435  24.719  0.00  0.00    +0.229 C 
ATOM     42  OG  SER A   7      27.088   4.507  25.317  0.00  0.00    -0.286 OA
ENDBRANCH  40  41
BRANCH  40  43
ATOM     43  C   SER A   7      25.663   2.829  22.753  0.00  0.00    +0.165 C 
BRANCH  43  44
ATOM     44  O   SER A   7      25.433   4.197  22.439  0.00  0.00    -0.380 OA
ATOM     45  H   SER A   7      24.630   4.515  22.924  0.00  0.00    +0.211 HD
ENDBRANCH  43  44
ENDBRANCH  40  43
ENDBRANCH  38  40
ENDBRANCH  35  36
ENDBRANCH  32  35
ENDBRANCH  30  31
BRANCH  30  46
ATOM     46  CB  ASP A   5      20.502   5.076  23.277  0.00  0.00    +0.143 C 
BRANCH  46  47
ATOM     47  CG  ASP A   5      21.751   4.922  22.475  0.00  0.00    +0.367 C 
ATOM     48  OD2 ASP A   5      22.845   4.804  23.087  0.00  0.00    -0.246 OA
ATOM     49  OD1 ASP A   5      21.638   4.983  21.229  0.00  0.00    -0.246 OA
ENDBRANCH  46  47
ENDBRANCH  30  46
ENDBRANCH  28  30
ENDBRANCH  25  26
ENDBRANCH  23  25
ENDBRANCH   1  21
BRANCH   1  50
ATOM     50  CB  TYR A   3      25.329   7.614  23.703  0.00  0.00    +0.055 C 
BRANCH  50  51
ATOM     51  CG  TYR A   3      26.530   7.959  22.868  0.00  0.00    -0.020 A 
ATOM     52  CD2 TYR A   3      27.519   7.013  22.621  0.00  0.00    -0.001 A 
ATOM     53  CE2 TYR A   3      28.609   7.322  21.843  0.00  0.00    +0.036 A 
ATOM     54  CZ  TYR A   3      28.742   8.605  21.319  0.00  0.00    +0.134 A 
ATOM     55  CE1 TYR A   3      27.795   9.570  21.575  0.00  0.00    +0.036 A 
ATOM     56  CD1 TYR A   3      26.695   9.242  22.357  0.00  0.00    -0.001 A 
BRANCH  54  57
ATOM     57  OH  TYR A   3      29.826   8.908  20.537  0.00  0.00    -0.506 OA
ATOM     58  HH  TYR A   3      29.769   9.853  20.248  0.00  0.00    +0.292 HD
ENDBRANCH  54  57
ENDBRANCH  50  51
ENDBRANCH   1  50
TORSDOF 25
REMARK  Name = ../refined-set-2016/2wec/2wec_pocket.pdb
REMARK  246 active torsions:
REMARK  status: ('A' for Active; 'I' for Inactive)
REMARK    1  A    between atoms: _1  and  _3
REMARK    2  A    between atoms: _3  and  _4
REMARK    3  A    between atoms: _3  and  _6
REMARK    4  A    between atoms: _6  and  _7
REMARK    5  A    between atoms: _10  and  _12
REMARK    6  A    between atoms: _12  and  _13
REMARK    7  A    between atoms: _12  and  _15
REMARK    8  A    between atoms: _15  and  _16
REMARK    9  A    between atoms: _19  and  _21
REMARK   10  A    between atoms: _21  and  _22
REMARK   11  A    between atoms: _21  and  _24
REMARK   12  A    between atoms: _24  and  _25
REMARK   13  A    between atoms: _25  and  _26
REMARK   14  A    between atoms: _29  and  _31
REMARK   15  A    between atoms: _31  and  _32
REMARK   16  A    between atoms: _31  and  _34
REMARK   17  A    between atoms: _34  and  _35
REMARK   18  A    between atoms: _35  and  _36
REMARK   19  A    between atoms: _39  and  _41
REMARK   20  A    between atoms: _41  and  _42
REMARK   21  A    between atoms: _41  and  _44
REMARK   22  A    between atoms: _44  and  _45
REMARK   23  A    between atoms: _50  and  _51
REMARK   24  A    between atoms: _53  and  _55
REMARK   25  A    between atoms: _55  and  _56
REMARK   26  A    between atoms: _55  and  _58
REMARK   27  A    between atoms: _58  and  _59
REMARK   28  A    between atoms: _64  and  _66
REMARK   29  A    between atoms: _66  and  _67
REMARK   30  A    between atoms: _66  and  _69
REMARK   31  A    between atoms: _69  and  _70
REMARK   32  A    between atoms: _73  and  _75
REMARK   33  A    between atoms: _75  and  _76
REMARK   34  A    between atoms: _75  and  _78
REMARK   35  A    between atoms: _78  and  _79
REMARK   36  A    between atoms: _82  and  _84
REMARK   37  A    between atoms: _84  and  _85
REMARK   38  A    between atoms: _87  and  _89
REMARK   39  A    between atoms: _89  and  _90
REMARK   40  A    between atoms: _89  and  _92
REMARK   41  A    between atoms: _92  and  _93
REMARK   42  A    between atoms: _95  and  _97
REMARK   43  A    between atoms: _97  and  _98
REMARK   44  A    between atoms: _97  and  _100
REMARK   45  A    between atoms: _100  and  _101
REMARK   46  A    between atoms: _104  and  _106
REMARK   47  A    between atoms: _106  and  _107
REMARK   48  A    between atoms: _106  and  _109
REMARK   49  A    between atoms: _109  and  _110
REMARK   50  A    between atoms: _112  and  _114
REMARK   51  A    between atoms: _114  and  _115
REMARK   52  A    between atoms: _114  and  _117
REMARK   53  A    between atoms: _117  and  _118
REMARK   54  A    between atoms: _123  and  _124
REMARK   55  A    between atoms: _126  and  _128
REMARK   56  A    between atoms: _128  and  _129
REMARK   57  A    between atoms: _131  and  _133
REMARK   58  A    between atoms: _133  and  _134
REMARK   59  A    between atoms: _133  and  _136
REMARK   60  A    between atoms: _136  and  _137
REMARK   61  A    between atoms: _140  and  _142
REMARK   62  A    between atoms: _142  and  _143
REMARK   63  A    between atoms: _145  and  _147
REMARK   64  A    between atoms: _147  and  _148
REMARK   65  A    between atoms: _147  and  _150
REMARK   66  A    between atoms: _150  and  _151
REMARK   67  A    between atoms: _153  and  _155
REMARK   68  A    between atoms: _155  and  _156
REMARK   69  A    between atoms: _155  and  _158
REMARK   70  A    between atoms: _158  and  _159
REMARK   71  A    between atoms: _159  and  _160
REMARK   72  A    between atoms: _165  and  _167
REMARK   73  A    between atoms: _167  and  _168
REMARK   74  A    between atoms: _167  and  _170
REMARK   75  A    between atoms: _170  and  _171
REMARK   76  A    between atoms: _177  and  _179
REMARK   77  A    between atoms: _179  and  _180
REMARK   78  A    between atoms: _179  and  _182
REMARK   79  A    between atoms: _182  and  _183
REMARK   80  A    between atoms: _186  and  _188
REMARK   81  A    between atoms: _188  and  _189
REMARK   82  A    between atoms: _188  and  _191
REMARK   83  A    between atoms: _191  and  _192
REMARK   84  A    between atoms: _197  and  _199
REMARK   85  A    between atoms: _199  and  _200
REMARK   86  A    between atoms: _199  and  _202
REMARK   87  A    between atoms: _202  and  _203
REMARK   88  A    between atoms: _208  and  _210
REMARK   89  A    between atoms: _210  and  _211
REMARK   90  A    between atoms: _210  and  _213
REMARK   91  A    between atoms: _213  and  _214
REMARK   92  A    between atoms: _217  and  _219
REMARK   93  A    between atoms: _219  and  _220
REMARK   94  A    between atoms: _223  and  _225
REMARK   95  A    between atoms: _225  and  _226
REMARK   96  A    between atoms: _225  and  _228
REMARK   97  A    between atoms: _228  and  _229
REMARK   98  A    between atoms: _232  and  _234
REMARK   99  A    between atoms: _234  and  _235
REMARK  100  A    between atoms: _234  and  _237
REMARK  101  A    between atoms: _237  and  _238
REMARK  102  A    between atoms: _244  and  _246
REMARK  103  A    between atoms: _246  and  _247
REMARK  104  A    between atoms: _246  and  _249
REMARK  105  A    between atoms: _249  and  _250
REMARK  106  A    between atoms: _253  and  _255
REMARK  107  A    between atoms: _255  and  _256
REMARK  108  A    between atoms: _255  and  _258
REMARK  109  A    between atoms: _258  and  _259
REMARK  110  A    between atoms: _262  and  _264
REMARK  111  A    between atoms: _264  and  _265
REMARK  112  A    between atoms: _264  and  _267
REMARK  113  A    between atoms: _267  and  _268
REMARK  114  A    between atoms: _271  and  _273
REMARK  115  A    between atoms: _273  and  _274
REMARK  116  A    between atoms: _276  and  _278
REMARK  117  A    between atoms: _278  and  _279
REMARK  118  A    between atoms: _278  and  _281
REMARK  119  A    between atoms: _281  and  _282
REMARK  120  A    between atoms: _285  and  _287
REMARK  121  A    between atoms: _287  and  _288
REMARK  122  A    between atoms: _287  and  _290
REMARK  123  A    between atoms: _290  and  _291
REMARK  124  A    between atoms: _294  and  _296
REMARK  125  A    between atoms: _296  and  _297
REMARK  126  A    between atoms: _296  and  _299
REMARK  127  A    between atoms: _299  and  _300
REMARK  128  A    between atoms: _303  and  _305
REMARK  129  A    between atoms: _305  and  _306
REMARK  130  A    between atoms: _305  and  _308
REMARK  131  A    between atoms: _308  and  _309
REMARK  132  A    between atoms: _312  and  _314
REMARK  133  A    between atoms: _314  and  _315
REMARK  134  A    between atoms: _314  and  _317
REMARK  135  A    between atoms: _317  and  _318
REMARK  136  A    between atoms: _321  and  _323
REMARK  137  A    between atoms: _323  and  _324
REMARK  138  A    between atoms: _323  and  _326
REMARK  139  A    between atoms: _326  and  _327
REMARK  140  A    between atoms: _330  and  _332
REMARK  141  A    between atoms: _332  and  _333
REMARK  142  A    between atoms: _332  and  _335
REMARK  143  A    between atoms: _335  and  _336
REMARK  144  A    between atoms: _338  and  _340
REMARK  145  A    between atoms: _340  and  _341
REMARK  146  A    between atoms: _340  and  _343
REMARK  147  A    between atoms: _343  and  _344
REMARK  148  A    between atoms: _349  and  _351
REMARK  149  A    between atoms: _351  and  _352
REMARK  150  A    between atoms: _355  and  _357
REMARK  151  A    between atoms: _357  and  _358
REMARK  152  A    between atoms: _360  and  _362
REMARK  153  A    between atoms: _362  and  _363
REMARK  154  A    between atoms: _365  and  _367
REMARK  155  A    between atoms: _367  and  _368
REMARK  156  A    between atoms: _367  and  _370
REMARK  157  A    between atoms: _370  and  _371
REMARK  158  A    between atoms: _376  and  _377
REMARK  159  A    between atoms: _379  and  _381
REMARK  160  A    between atoms: _381  and  _382
REMARK  161  A    between atoms: _381  and  _384
REMARK  162  A    between atoms: _384  and  _385
REMARK  163  A    between atoms: _390  and  _391
REMARK  164  A    between atoms: _393  and  _395
REMARK  165  A    between atoms: _395  and  _396
REMARK  166  A    between atoms: _395  and  _398
REMARK  167  A    between atoms: _398  and  _399
REMARK  168  A    between atoms: _401  and  _403
REMARK  169  A    between atoms: _403  and  _404
REMARK  170  A    between atoms: _403  and  _406
REMARK  171  A    between atoms: _406  and  _407
REMARK  172  A    between atoms: _410  and  _412
REMARK  173  A    between atoms: _412  and  _413
REMARK  174  A    between atoms: _415  and  _417
REMARK  175  A    between atoms: _417  and  _418
REMARK  176  A    between atoms: _420  and  _422
REMARK  177  A    between atoms: _422  and  _423
REMARK  178  A    between atoms: _422  and  _425
REMARK  179  A    between atoms: _425  and  _426
REMARK  180  A    between atoms: _429  and  _431
REMARK  181  A    between atoms: _431  and  _432
REMARK  182  A    between atoms: _431  and  _434
REMARK  183  A    between atoms: _434  and  _435
REMARK  184  A    between atoms: _435  and  _436
REMARK  185  A    between atoms: _441  and  _443
REMARK  186  A    between atoms: _443  and  _444
REMARK  187  A    between atoms: _443  and  _446
REMARK  188  A    between atoms: _446  and  _447
REMARK  189  A    between atoms: _449  and  _451
REMARK  190  A    between atoms: _451  and  _452
REMARK  191  A    between atoms: _451  and  _454
REMARK  192  A    between atoms: _454  and  _455
REMARK  193  A    between atoms: _460  and  _462
REMARK  194  A    between atoms: _462  and  _463
REMARK  195  A    between atoms: _462  and  _465
REMARK  196  A    between atoms: _465  and  _466
REMARK  197  A    between atoms: _468  and  _470
REMARK  198  A    between atoms: _470  and  _471
REMARK  199  A    between atoms: _473  and  _475
REMARK  200  A    between atoms: _475  and  _476
REMARK  201  A    between atoms: _475  and  _478
REMARK  202  A    between atoms: _478  and  _479
REMARK  203  A    between atoms: _482  and  _484
REMARK  204  A    between atoms: _484  and  _485
REMARK  205  A    between atoms: _484  and  _487
REMARK  206  A    between atoms: _487  and  _488
REMARK  207  A    between atoms: _494  and  _496
REMARK  208  A    between atoms: _496  and  _497
REMARK  209  A    between atoms: _496  and  _499
REMARK  210  A    between atoms: _499  and  _500
REMARK  211  A    between atoms: _502  and  _504
REMARK  212  A    between atoms: _504  and  _505
REMARK  213  A    between atoms: _504  and  _507
REMARK  214  A    between atoms: _507  and  _508
REMARK  215  A    between atoms: _511  and  _513
REMARK  216  A    between atoms: _513  and  _514
REMARK  217  A    between atoms: _516  and  _518
REMARK  218  A    between atoms: _518  and  _519
REMARK  219  A    between atoms: _518  and  _521
REMARK  220  A    between atoms: _521  and  _522
REMARK  221  A    between atoms: _525  and  _527
REMARK  222  A    between atoms: _527  and  _528
REMARK  223  A    between atoms: _527  and  _530
REMARK  224  A    between atoms: _530  and  _531
REMARK  225  A    between atoms: _533  and  _535
REMARK  226  A    between atoms: _535  and  _536
REMARK  227  A    between atoms: _538  and  _540
REMARK  228  A    between atoms: _540  and  _541
REMARK  229  A    between atoms: _540  and  _543
REMARK  230  A    between atoms: _543  and  _544
REMARK  231  A    between atoms: _549  and  _550
REMARK  232  A    between atoms: _552  and  _554
REMARK  233  A    between atoms: _554  and  _555
REMARK  234  A    between atoms: _554  and  _557
REMARK  235  A    between atoms: _557  and  _558
REMARK  236  A    between atoms: _561  and  _563
REMARK  237  A    between atoms: _563  and  _564
REMARK  238  A    between atoms: _563  and  _566
REMARK  239  A    between atoms: _566  and  _567
REMARK  240  A    between atoms: _567  and  _568
REMARK  241  A    between atoms: _574  and  _575
REMARK  242  A    between atoms: _580  and  _582
REMARK  243  A    between atoms: _582  and  _583
REMARK  244  A    between atoms: _582  and  _585
REMARK  245  A    between atoms: _585  and  _586
REMARK  246  A    between atoms: _586  and  _587
REMARK                            x       y       z     vdW  Elec       q    Type
REMARK                         _______ _______ _______ _____ _____    ______ ____
ROOT
ATOM      1  C   GLN A   1      25.543  -1.161  19.002  0.00  0.00    +0.238 C 
ATOM      2  N   PHE A   2      26.799  -0.752  19.166  0.00  0.00    -0.298 N 
ATOM      3  H   PHE A   2      27.211  -0.674  20.118  0.00  0.00    +0.150 HD
ATOM      4  O   GLN A   1      25.037  -1.301  17.877  0.00  0.00    -0.274 OA
ENDROOT
BRANCH   1   5
ATOM      5  CA  GLN A   1      24.753  -1.506  20.253  0.00  0.00    +0.145 C 
BRANCH   5   6
ATOM      6  N   GLN A   1      25.556  -2.275  21.180  0.00  0.00    -0.238 NA
ATOM      7  H   GLN A   1      25.681  -1.947  22.159  0.00  0.00    +0.142 HD
ENDBRANCH   5   6
BRANCH   5   8
ATOM      8  CB  GLN A   1      24.163  -0.255  20.910  0.00  0.00    +0.036 C 
BRANCH   8   9
ATOM      9  CG  GLN A   1      23.299  -0.490  22.180  0.00  0.00    +0.087 C 
BRANCH   9  10
ATOM     10  CD  GLN A   1      24.057  -0.481  23.524  0.00  0.00    +0.219 C 
ATOM     11  NE2 GLN A   1      23.376   0.004  24.557  0.00  0.00    -0.329 N 
ATOM     12 HE21 GLN A   1      23.825   0.067  25.493  0.00  0.00    +0.145 HD
ATOM     13 HE22 GLN A   1      22.394   0.321  24.430  0.00  0.00    +0.145 HD
ATOM     14  OE1 GLN A   1      25.229  -0.870  23.629  0.00  0.00    -0.275 OA
ENDBRANCH   9  10
ENDBRANCH   8   9
ENDBRANCH   5   8
ENDBRANCH   1   5
BRANCH   2  15
ATOM     15  CA  PHE A   2      27.586  -0.415  17.984  0.00  0.00    +0.141 C 
BRANCH  15  16
ATOM     16  C   PHE A   2      28.041  -1.652  17.215  0.00  0.00    +0.227 C 
ATOM     17  O   PHE A   2      28.196  -1.624  15.986  0.00  0.00    -0.286 OA
ENDBRANCH  15  16
BRANCH  15  18
ATOM     18  CB  PHE A   2      28.793   0.441  18.350  0.00  0.00    +0.054 C 
BRANCH  18  19
ATOM     19  CG  PHE A   2      28.416   1.772  18.893  0.00  0.00    -0.020 A 
ATOM     20  CD2 PHE A   2      28.634   2.093  20.229  0.00  0.00    -0.004 A 
ATOM     21  CE2 PHE A   2      28.270   3.348  20.744  0.00  0.00    -0.000 A 
ATOM     22  CZ  PHE A   2      27.651   4.267  19.924  0.00  0.00    -0.000 A 
ATOM     23  CE1 PHE A   2      27.408   3.939  18.572  0.00  0.00    -0.000 A 
ATOM     24  CD1 PHE A   2      27.783   2.690  18.077  0.00  0.00    -0.004 A 
ENDBRANCH  18  19
ENDBRANCH  15  18
ENDBRANCH   2  15
TORSDOF 9
REMARK  Name = ../refined-set-2016/2wec/2wec_pocket.pdb
REMARK  246 active torsions:
REMARK  status: ('A' for Active; 'I' for Inactive)
REMARK    1  A    between atoms: _1  and  _3
REMARK    2  A    between atoms: _3  and  _4
REMARK    3  A    between atoms: _3  and  _6
REMARK    4  A    between atoms: _6  and  _7
REMARK    5  A    between atoms: _10  and  _12
REMARK    6  A    between atoms: _12  and  _13
REMARK    7  A    between atoms: _12  and  _15
REMARK    8  A    between atoms: _15  and  _16
REMARK    9  A    between atoms: _19  and  _21
REMARK   10  A    between atoms: _21  and  _22
REMARK   11  A    between atoms: _21  and  _24
REMARK   12  A    between atoms: _24  and  _25
REMARK   13  A    between atoms: _25  and  _26
REMARK   14  A    between atoms: _29  and  _31
REMARK   15  A    between atoms: _31  and  _32
REMARK   16  A    between atoms: _31  and  _34
REMARK   17  A    between atoms: _34  and  _35
REMARK   18  A    between atoms: _35  and  _36
REMARK   19  A    between atoms: _39  and  _41
REMARK   20  A    between atoms: _41  and  _42
REMARK   21  A    between atoms: _41  and  _44
REMARK   22  A    between atoms: _44  and  _45
REMARK   23  A    between atoms: _50  and  _51
REMARK   24  A    between atoms: _53  and  _55
REMARK   25  A    between atoms: _55  and  _56
REMARK   26  A    between atoms: _55  and  _58
REMARK   27  A    between atoms: _58  and  _59
REMARK   28  A    between atoms: _64  and  _66
REMARK   29  A    between atoms: _66  and  _67
REMARK   30  A    between atoms: _66  and  _69
REMARK   31  A    between atoms: _69  and  _70
REMARK   32  A    between atoms: _73  and  _75
REMARK   33  A    between atoms: _75  and  _76
REMARK   34  A    between atoms: _75  and  _78
REMARK   35  A    between atoms: _78  and  _79
REMARK   36  A    between atoms: _82  and  _84
REMARK   37  A    between atoms: _84  and  _85
REMARK   38  A    between atoms: _87  and  _89
REMARK   39  A    between atoms: _89  and  _90
REMARK   40  A    between atoms: _89  and  _92
REMARK   41  A    between atoms: _92  and  _93
REMARK   42  A    between atoms: _95  and  _97
REMARK   43  A    between atoms: _97  and  _98
REMARK   44  A    between atoms: _97  and  _100
REMARK   45  A    between atoms: _100  and  _101
REMARK   46  A    between atoms: _104  and  _106
REMARK   47  A    between atoms: _106  and  _107
REMARK   48  A    between atoms: _106  and  _109
REMARK   49  A    between atoms: _109  and  _110
REMARK   50  A    between atoms: _112  and  _114
REMARK   51  A    between atoms: _114  and  _115
REMARK   52  A    between atoms: _114  and  _117
REMARK   53  A    between atoms: _117  and  _118
REMARK   54  A    between atoms: _123  and  _124
REMARK   55  A    between atoms: _126  and  _128
REMARK   56  A    between atoms: _128  and  _129
REMARK   57  A    between atoms: _131  and  _133
REMARK   58  A    between atoms: _133  and  _134
REMARK   59  A    between atoms: _133  and  _136
REMARK   60  A    between atoms: _136  and  _137
REMARK   61  A    between atoms: _140  and  _142
REMARK   62  A    between atoms: _142  and  _143
REMARK   63  A    between atoms: _145  and  _147
REMARK   64  A    between atoms: _147  and  _148
REMARK   65  A    between atoms: _147  and  _150
REMARK   66  A    between atoms: _150  and  _151
REMARK   67  A    between atoms: _153  and  _155
REMARK   68  A    between atoms: _155  and  _156
REMARK   69  A    between atoms: _155  and  _158
REMARK   70  A    between atoms: _158  and  _159
REMARK   71  A    between atoms: _159  and  _160
REMARK   72  A    between atoms: _165  and  _167
REMARK   73  A    between atoms: _167  and  _168
REMARK   74  A    between atoms: _167  and  _170
REMARK   75  A    between atoms: _170  and  _171
REMARK   76  A    between atoms: _177  and  _179
REMARK   77  A    between atoms: _179  and  _180
REMARK   78  A    between atoms: _179  and  _182
REMARK   79  A    between atoms: _182  and  _183
REMARK   80  A    between atoms: _186  and  _188
REMARK   81  A    between atoms: _188  and  _189
REMARK   82  A    between atoms: _188  and  _191
REMARK   83  A    between atoms: _191  and  _192
REMARK   84  A    between atoms: _197  and  _199
REMARK   85  A    between atoms: _199  and  _200
REMARK   86  A    between atoms: _199  and  _202
REMARK   87  A    between atoms: _202  and  _203
REMARK   88  A    between atoms: _208  and  _210
REMARK   89  A    between atoms: _210  and  _211
REMARK   90  A    between atoms: _210  and  _213
REMARK   91  A    between atoms: _213  and  _214
REMARK   92  A    between atoms: _217  and  _219
REMARK   93  A    between atoms: _219  and  _220
REMARK   94  A    between atoms: _223  and  _225
REMARK   95  A    between atoms: _225  and  _226
REMARK   96  A    between atoms: _225  and  _228
REMARK   97  A    between atoms: _228  and  _229
REMARK   98  A    between atoms: _232  and  _234
REMARK   99  A    between atoms: _234  and  _235
REMARK  100  A    between atoms: _234  and  _237
REMARK  101  A    between atoms: _237  and  _238
REMARK  102  A    between atoms: _244  and  _246
REMARK  103  A    between atoms: _246  and  _247
REMARK  104  A    between atoms: _246  and  _249
REMARK  105  A    between atoms: _249  and  _250
REMARK  106  A    between atoms: _253  and  _255
REMARK  107  A    between atoms: _255  and  _256
REMARK  108  A    between atoms: _255  and  _258
REMARK  109  A    between atoms: _258  and  _259
REMARK  110  A    between atoms: _262  and  _264
REMARK  111  A    between atoms: _264  and  _265
REMARK  112  A    between atoms: _264  and  _267
REMARK  113  A    between atoms: _267  and  _268
REMARK  114  A    between atoms: _271  and  _273
REMARK  115  A    between atoms: _273  and  _274
REMARK  116  A    between atoms: _276  and  _278
REMARK  117  A    between atoms: _278  and  _279
REMARK  118  A    between atoms: _278  and  _281
REMARK  119  A    between atoms: _281  and  _282
REMARK  120  A    between atoms: _285  and  _287
REMARK  121  A    between atoms: _287  and  _288
REMARK  122  A    between atoms: _287  and  _290
REMARK  123  A    between atoms: _290  and  _291
REMARK  124  A    between atoms: _294  and  _296
REMARK  125  A    between atoms: _296  and  _297
REMARK  126  A    between atoms: _296  and  _299
REMARK  127  A    between atoms: _299  and  _300
REMARK  128  A    between atoms: _303  and  _305
REMARK  129  A    between atoms: _305  and  _306
REMARK  130  A    between atoms: _305  and  _308
REMARK  131  A    between atoms: _308  and  _309
REMARK  132  A    between atoms: _312  and  _314
REMARK  133  A    between atoms: _314  and  _315
REMARK  134  A    between atoms: _314  and  _317
REMARK  135  A    between atoms: _317  and  _318
REMARK  136  A    between atoms: _321  and  _323
REMARK  137  A    between atoms: _323  and  _324
REMARK  138  A    between atoms: _323  and  _326
REMARK  139  A    between atoms: _326  and  _327
REMARK  140  A    between atoms: _330  and  _332
REMARK  141  A    between atoms: _332  and  _333
REMARK  142  A    between atoms: _332  and  _335
REMARK  143  A    between atoms: _335  and  _336
REMARK  144  A    between atoms: _338  and  _340
REMARK  145  A    between atoms: _340  and  _341
REMARK  146  A    between atoms: _340  and  _343
REMARK  147  A    between atoms: _343  and  _344
REMARK  148  A    between atoms: _349  and  _351
REMARK  149  A    between atoms: _351  and  _352
REMARK  150  A    between atoms: _355  and  _357
REMARK  151  A    between atoms: _357  and  _358
REMARK  152  A    between atoms: _360  and  _362
REMARK  153  A    between atoms: _362  and  _363
REMARK  154  A    between atoms: _365  and  _367
REMARK  155  A    between atoms: _367  and  _368
REMARK  156  A    between atoms: _367  and  _370
REMARK  157  A    between atoms: _370  and  _371
REMARK  158  A    between atoms: _376  and  _377
REMARK  159  A    between atoms: _379  and  _381
REMARK  160  A    between atoms: _381  and  _382
REMARK  161  A    between atoms: _381  and  _384
REMARK  162  A    between atoms: _384  and  _385
REMARK  163  A    between atoms: _390  and  _391
REMARK  164  A    between atoms: _393  and  _395
REMARK  165  A    between atoms: _395  and  _396
REMARK  166  A    between atoms: _395  and  _398
REMARK  167  A    between atoms: _398  and  _399
REMARK  168  A    between atoms: _401  and  _403
REMARK  169  A    between atoms: _403  and  _404
REMARK  170  A    between atoms: _403  and  _406
REMARK  171  A    between atoms: _406  and  _407
REMARK  172  A    between atoms: _410  and  _412
REMARK  173  A    between atoms: _412  and  _413
REMARK  174  A    between atoms: _415  and  _417
REMARK  175  A    between atoms: _417  and  _418
REMARK  176  A    between atoms: _420  and  _422
REMARK  177  A    between atoms: _422  and  _423
REMARK  178  A    between atoms: _422  and  _425
REMARK  179  A    between atoms: _425  and  _426
REMARK  180  A    between atoms: _429  and  _431
REMARK  181  A    between atoms: _431  and  _432
REMARK  182  A    between atoms: _431  and  _434
REMARK  183  A    between atoms: _434  and  _435
REMARK  184  A    between atoms: _435  and  _436
REMARK  185  A    between atoms: _441  and  _443
REMARK  186  A    between atoms: _443  and  _444
REMARK  187  A    between atoms: _443  and  _446
REMARK  188  A    between atoms: _446  and  _447
REMARK  189  A    between atoms: _449  and  _451
REMARK  190  A    between atoms: _451  and  _452
REMARK  191  A    between atoms: _451  and  _454
REMARK  192  A    between atoms: _454  and  _455
REMARK  193  A    between atoms: _460  and  _462
REMARK  194  A    between atoms: _462  and  _463
REMARK  195  A    between atoms: _462  and  _465
REMARK  196  A    between atoms: _465  and  _466
REMARK  197  A    between atoms: _468  and  _470
REMARK  198  A    between atoms: _470  and  _471
REMARK  199  A    between atoms: _473  and  _475
REMARK  200  A    between atoms: _475  and  _476
REMARK  201  A    between atoms: _475  and  _478
REMARK  202  A    between atoms: _478  and  _479
REMARK  203  A    between atoms: _482  and  _484
REMARK  204  A    between atoms: _484  and  _485
REMARK  205  A    between atoms: _484  and  _487
REMARK  206  A    between atoms: _487  and  _488
REMARK  207  A    between atoms: _494  and  _496
REMARK  208  A    between atoms: _496  and  _497
REMARK  209  A    between atoms: _496  and  _499
REMARK  210  A    between atoms: _499  and  _500
REMARK  211  A    between atoms: _502  and  _504
REMARK  212  A    between atoms: _504  and  _505
REMARK  213  A    between atoms: _504  and  _507
REMARK  214  A    between atoms: _507  and  _508
REMARK  215  A    between atoms: _511  and  _513
REMARK  216  A    between atoms: _513  and  _514
REMARK  217  A    between atoms: _516  and  _518
REMARK  218  A    between atoms: _518  and  _519
REMARK  219  A    between atoms: _518  and  _521
REMARK  220  A    between atoms: _521  and  _522
REMARK  221  A    between atoms: _525  and  _527
REMARK  222  A    between atoms: _527  and  _528
REMARK  223  A    between atoms: _527  and  _530
REMARK  224  A    between atoms: _530  and  _531
REMARK  225  A    between atoms: _533  and  _535
REMARK  226  A    between atoms: _535  and  _536
REMARK  227  A    between atoms: _538  and  _540
REMARK  228  A    between atoms: _540  and  _541
REMARK  229  A    between atoms: _540  and  _543
REMARK  230  A    between atoms: _543  and  _544
REMARK  231  A    between atoms: _549  and  _550
REMARK  232  A    between atoms: _552  and  _554
REMARK  233  A    between atoms: _554  and  _555
REMARK  234  A    between atoms: _554  and  _557
REMARK  235  A    between atoms: _557  and  _558
REMARK  236  A    between atoms: _561  and  _563
REMARK  237  A    between atoms: _563  and  _564
REMARK  238  A    between atoms: _563  and  _566
REMARK  239  A    between atoms: _566  and  _567
REMARK  240  A    between atoms: _567  and  _568
REMARK  241  A    between atoms: _574  and  _575
REMARK  242  A    between atoms: _580  and  _582
REMARK  243  A    between atoms: _582  and  _583
REMARK  244  A    between atoms: _582  and  _585
REMARK  245  A    between atoms: _585  and  _586
REMARK  246  A    between atoms: _586  and  _587
REMARK                            x       y       z     vdW  Elec       q    Type
REMARK                         _______ _______ _______ _____ _____    ______ ____
ROOT
ATOM      1  CA  ASP A   1      24.714  -1.449  13.911  0.00  0.00    +0.144 C 
ENDROOT
BRANCH   1   2
ATOM      2  N   ASP A   1      25.044  -2.423  14.943  0.00  0.00    -0.239 NA
ATOM      3  H   ASP A   1      25.499  -2.096  15.819  0.00  0.00    +0.142 HD
ENDBRANCH   1   2
BRANCH   1   4
ATOM      4  C   ASP A   1      25.745  -1.346  12.785  0.00  0.00    +0.225 C 
ATOM      5  O   ASP A   1      26.787  -0.716  12.938  0.00  0.00    -0.287 OA
ENDBRANCH   1   4
BRANCH   1   6
ATOM      6  CB  ASP A   1      24.506  -0.089  14.571  0.00  0.00    +0.139 C 
BRANCH   6   7
ATOM      7  CG  ASP A   1      23.946   0.960  13.610  0.00  0.00    +0.367 C 
ATOM      8  OD2 ASP A   1      23.609   2.063  14.104  0.00  0.00    -0.246 OA
ATOM      9  OD1 ASP A   1      23.850   0.681  12.389  0.00  0.00    -0.246 OA
ENDBRANCH   6   7
ENDBRANCH   1   6
TORSDOF 4
REMARK  Name = ../refined-set-2016/2wec/2wec_pocket.pdb
REMARK  246 active torsions:
REMARK  status: ('A' for Active; 'I' for Inactive)
REMARK    1  A    between atoms: _1  and  _3
REMARK    2  A    between atoms: _3  and  _4
REMARK    3  A    between atoms: _3  and  _6
REMARK    4  A    between atoms: _6  and  _7
REMARK    5  A    between atoms: _10  and  _12
REMARK    6  A    between atoms: _12  and  _13
REMARK    7  A    between atoms: _12  and  _15
REMARK    8  A    between atoms: _15  and  _16
REMARK    9  A    between atoms: _19  and  _21
REMARK   10  A    between atoms: _21  and  _22
REMARK   11  A    between atoms: _21  and  _24
REMARK   12  A    between atoms: _24  and  _25
REMARK   13  A    between atoms: _25  and  _26
REMARK   14  A    between atoms: _29  and  _31
REMARK   15  A    between atoms: _31  and  _32
REMARK   16  A    between atoms: _31  and  _34
REMARK   17  A    between atoms: _34  and  _35
REMARK   18  A    between atoms: _35  and  _36
REMARK   19  A    between atoms: _39  and  _41
REMARK   20  A    between atoms: _41  and  _42
REMARK   21  A    between atoms: _41  and  _44
REMARK   22  A    between atoms: _44  and  _45
REMARK   23  A    between atoms: _50  and  _51
REMARK   24  A    between atoms: _53  and  _55
REMARK   25  A    between atoms: _55  and  _56
REMARK   26  A    between atoms: _55  and  _58
REMARK   27  A    between atoms: _58  and  _59
REMARK   28  A    between atoms: _64  and  _66
REMARK   29  A    between atoms: _66  and  _67
REMARK   30  A    between atoms: _66  and  _69
REMARK   31  A    between atoms: _69  and  _70
REMARK   32  A    between atoms: _73  and  _75
REMARK   33  A    between atoms: _75  and  _76
REMARK   34  A    between atoms: _75  and  _78
REMARK   35  A    between atoms: _78  and  _79
REMARK   36  A    between atoms: _82  and  _84
REMARK   37  A    between atoms: _84  and  _85
REMARK   38  A    between atoms: _87  and  _89
REMARK   39  A    between atoms: _89  and  _90
REMARK   40  A    between atoms: _89  and  _92
REMARK   41  A    between atoms: _92  and  _93
REMARK   42  A    between atoms: _95  and  _97
REMARK   43  A    between atoms: _97  and  _98
REMARK   44  A    between atoms: _97  and  _100
REMARK   45  A    between atoms: _100  and  _101
REMARK   46  A    between atoms: _104  and  _106
REMARK   47  A    between atoms: _106  and  _107
REMARK   48  A    between atoms: _106  and  _109
REMARK   49  A    between atoms: _109  and  _110
REMARK   50  A    between atoms: _112  and  _114
REMARK   51  A    between atoms: _114  and  _115
REMARK   52  A    between atoms: _114  and  _117
REMARK   53  A    between atoms: _117  and  _118
REMARK   54  A    between atoms: _123  and  _124
REMARK   55  A    between atoms: _126  and  _128
REMARK   56  A    between atoms: _128  and  _129
REMARK   57  A    between atoms: _131  and  _133
REMARK   58  A    between atoms: _133  and  _134
REMARK   59  A    between atoms: _133  and  _136
REMARK   60  A    between atoms: _136  and  _137
REMARK   61  A    between atoms: _140  and  _142
REMARK   62  A    between atoms: _142  and  _143
REMARK   63  A    between atoms: _145  and  _147
REMARK   64  A    between atoms: _147  and  _148
REMARK   65  A    between atoms: _147  and  _150
REMARK   66  A    between atoms: _150  and  _151
REMARK   67  A    between atoms: _153  and  _155
REMARK   68  A    between atoms: _155  and  _156
REMARK   69  A    between atoms: _155  and  _158
REMARK   70  A    between atoms: _158  and  _159
REMARK   71  A    between atoms: _159  and  _160
REMARK   72  A    between atoms: _165  and  _167
REMARK   73  A    between atoms: _167  and  _168
REMARK   74  A    between atoms: _167  and  _170
REMARK   75  A    between atoms: _170  and  _171
REMARK   76  A    between atoms: _177  and  _179
REMARK   77  A    between atoms: _179  and  _180
REMARK   78  A    between atoms: _179  and  _182
REMARK   79  A    between atoms: _182  and  _183
REMARK   80  A    between atoms: _186  and  _188
REMARK   81  A    between atoms: _188  and  _189
REMARK   82  A    between atoms: _188  and  _191
REMARK   83  A    between atoms: _191  and  _192
REMARK   84  A    between atoms: _197  and  _199
REMARK   85  A    between atoms: _199  and  _200
REMARK   86  A    between atoms: _199  and  _202
REMARK   87  A    between atoms: _202  and  _203
REMARK   88  A    between atoms: _208  and  _210
REMARK   89  A    between atoms: _210  and  _211
REMARK   90  A    between atoms: _210  and  _213
REMARK   91  A    between atoms: _213  and  _214
REMARK   92  A    between atoms: _217  and  _219
REMARK   93  A    between atoms: _219  and  _220
REMARK   94  A    between atoms: _223  and  _225
REMARK   95  A    between atoms: _225  and  _226
REMARK   96  A    between atoms: _225  and  _228
REMARK   97  A    between atoms: _228  and  _229
REMARK   98  A    between atoms: _232  and  _234
REMARK   99  A    between atoms: _234  and  _235
REMARK  100  A    between atoms: _234  and  _237
REMARK  101  A    between atoms: _237  and  _238
REMARK  102  A    between atoms: _244  and  _246
REMARK  103  A    between atoms: _246  and  _247
REMARK  104  A    between atoms: _246  and  _249
REMARK  105  A    between atoms: _249  and  _250
REMARK  106  A    between atoms: _253  and  _255
REMARK  107  A    between atoms: _255  and  _256
REMARK  108  A    between atoms: _255  and  _258
REMARK  109  A    between atoms: _258  and  _259
REMARK  110  A    between atoms: _262  and  _264
REMARK  111  A    between atoms: _264  and  _265
REMARK  112  A    between atoms: _264  and  _267
REMARK  113  A    between atoms: _267  and  _268
REMARK  114  A    between atoms: _271  and  _273
REMARK  115  A    between atoms: _273  and  _274
REMARK  116  A    between atoms: _276  and  _278
REMARK  117  A    between atoms: _278  and  _279
REMARK  118  A    between atoms: _278  and  _281
REMARK  119  A    between atoms: _281  and  _282
REMARK  120  A    between atoms: _285  and  _287
REMARK  121  A    between atoms: _287  and  _288
REMARK  122  A    between atoms: _287  and  _290
REMARK  123  A    between atoms: _290  and  _291
REMARK  124  A    between atoms: _294  and  _296
REMARK  125  A    between atoms: _296  and  _297
REMARK  126  A    between atoms: _296  and  _299
REMARK  127  A    between atoms: _299  and  _300
REMARK  128  A    between atoms: _303  and  _305
REMARK  129  A    between atoms: _305  and  _306
REMARK  130  A    between atoms: _305  and  _308
REMARK  131  A    between atoms: _308  and  _309
REMARK  132  A    between atoms: _312  and  _314
REMARK  133  A    between atoms: _314  and  _315
REMARK  134  A    between atoms: _314  and  _317
REMARK  135  A    between atoms: _317  and  _318
REMARK  136  A    between atoms: _321  and  _323
REMARK  137  A    between atoms: _323  and  _324
REMARK  138  A    between atoms: _323  and  _326
REMARK  139  A    between atoms: _326  and  _327
REMARK  140  A    between atoms: _330  and  _332
REMARK  141  A    between atoms: _332  and  _333
REMARK  142  A    between atoms: _332  and  _335
REMARK  143  A    between atoms: _335  and  _336
REMARK  144  A    between atoms: _338  and  _340
REMARK  145  A    between atoms: _340  and  _341
REMARK  146  A    between atoms: _340  and  _343
REMARK  147  A    between atoms: _343  and  _344
REMARK  148  A    between atoms: _349  and  _351
REMARK  149  A    between atoms: _351  and  _352
REMARK  150  A    between atoms: _355  and  _357
REMARK  151  A    between atoms: _357  and  _358
REMARK  152  A    between atoms: _360  and  _362
REMARK  153  A    between atoms: _362  and  _363
REMARK  154  A    between atoms: _365  and  _367
REMARK  155  A    between atoms: _367  and  _368
REMARK  156  A    between atoms: _367  and  _370
REMARK  157  A    between atoms: _370  and  _371
REMARK  158  A    between atoms: _376  and  _377
REMARK  159  A    between atoms: _379  and  _381
REMARK  160  A    between atoms: _381  and  _382
REMARK  161  A    between atoms: _381  and  _384
REMARK  162  A    between atoms: _384  and  _385
REMARK  163  A    between atoms: _390  and  _391
REMARK  164  A    between atoms: _393  and  _395
REMARK  165  A    between atoms: _395  and  _396
REMARK  166  A    between atoms: _395  and  _398
REMARK  167  A    between atoms: _398  and  _399
REMARK  168  A    between atoms: _401  and  _403
REMARK  169  A    between atoms: _403  and  _404
REMARK  170  A    between atoms: _403  and  _406
REMARK  171  A    between atoms: _406  and  _407
REMARK  172  A    between atoms: _410  and  _412
REMARK  173  A    between atoms: _412  and  _413
REMARK  174  A    between atoms: _415  and  _417
REMARK  175  A    between atoms: _417  and  _418
REMARK  176  A    between atoms: _420  and  _422
REMARK  177  A    between atoms: _422  and  _423
REMARK  178  A    between atoms: _422  and  _425
REMARK  179  A    between atoms: _425  and  _426
REMARK  180  A    between atoms: _429  and  _431
REMARK  181  A    between atoms: _431  and  _432
REMARK  182  A    between atoms: _431  and  _434
REMARK  183  A    between atoms: _434  and  _435
REMARK  184  A    between atoms: _435  and  _436
REMARK  185  A    between atoms: _441  and  _443
REMARK  186  A    between atoms: _443  and  _444
REMARK  187  A    between atoms: _443  and  _446
REMARK  188  A    between atoms: _446  and  _447
REMARK  189  A    between atoms: _449  and  _451
REMARK  190  A    between atoms: _451  and  _452
REMARK  191  A    between atoms: _451  and  _454
REMARK  192  A    between atoms: _454  and  _455
REMARK  193  A    between atoms: _460  and  _462
REMARK  194  A    between atoms: _462  and  _463
REMARK  195  A    between atoms: _462  and  _465
REMARK  196  A    between atoms: _465  and  _466
REMARK  197  A    between atoms: _468  and  _470
REMARK  198  A    between atoms: _470  and  _471
REMARK  199  A    between atoms: _473  and  _475
REMARK  200  A    between atoms: _475  and  _476
REMARK  201  A    between atoms: _475  and  _478
REMARK  202  A    between atoms: _478  and  _479
REMARK  203  A    between atoms: _482  and  _484
REMARK  204  A    between atoms: _484  and  _485
REMARK  205  A    between atoms: _484  and  _487
REMARK  206  A    between atoms: _487  and  _488
REMARK  207  A    between atoms: _494  and  _496
REMARK  208  A    between atoms: _496  and  _497
REMARK  209  A    between atoms: _496  and  _499
REMARK  210  A    between atoms: _499  and  _500
REMARK  211  A    between atoms: _502  and  _504
REMARK  212  A    between atoms: _504  and  _505
REMARK  213  A    between atoms: _504  and  _507
REMARK  214  A    between atoms: _507  and  _508
REMARK  215  A    between atoms: _511  and  _513
REMARK  216  A    between atoms: _513  and  _514
REMARK  217  A    between atoms: _516  and  _518
REMARK  218  A    between atoms: _518  and  _519
REMARK  219  A    between atoms: _518  and  _521
REMARK  220  A    between atoms: _521  and  _522
REMARK  221  A    between atoms: _525  and  _527
REMARK  222  A    between atoms: _527  and  _528
REMARK  223  A    between atoms: _527  and  _530
REMARK  224  A    between atoms: _530  and  _531
REMARK  225  A    between atoms: _533  and  _535
REMARK  226  A    between atoms: _535  and  _536
REMARK  227  A    between atoms: _538  and  _540
REMARK  228  A    between atoms: _540  and  _541
REMARK  229  A    between atoms: _540  and  _543
REMARK  230  A    between atoms: _543  and  _544
REMARK  231  A    between atoms: _549  and  _550
REMARK  232  A    between atoms: _552  and  _554
REMARK  233  A    between atoms: _554  and  _555
REMARK  234  A    between atoms: _554  and  _557
REMARK  235  A    between atoms: _557  and  _558
REMARK  236  A    between atoms: _561  and  _563
REMARK  237  A    between atoms: _563  and  _564
REMARK  238  A    between atoms: _563  and  _566
REMARK  239  A    between atoms: _566  and  _567
REMARK  240  A    between atoms: _567  and  _568
REMARK  241  A    between atoms: _574  and  _575
REMARK  242  A    between atoms: _580  and  _582
REMARK  243  A    between atoms: _582  and  _583
REMARK  244  A    between atoms: _582  and  _585
REMARK  245  A    between atoms: _585  and  _586
REMARK  246  A    between atoms: _586  and  _587
REMARK                            x       y       z     vdW  Elec       q    Type
REMARK                         _______ _______ _______ _____ _____    ______ ____
ROOT
ATOM      1  C   ASN A   1      25.804   2.416   9.181  0.00  0.00    +0.239 C 
ATOM      2  N   ASN A   2      26.558   2.460  10.272  0.00  0.00    -0.298 N 
ATOM      3  H   ASN A   2      26.448   1.765  11.037  0.00  0.00    +0.150 HD
ATOM      4  O   ASN A   1      25.945   3.215   8.243  0.00  0.00    -0.274 OA
ENDROOT
BRANCH   1   5
ATOM      5  CA  ASN A   1      24.764   1.315   9.114  0.00  0.00    +0.154 C 
BRANCH   5   6
ATOM      6  N   ASN A   1      25.122   0.178   9.960  0.00  0.00    -0.238 NA
ATOM      7  H   ASN A   1      24.636   0.039  10.869  0.00  0.00    +0.142 HD
ENDBRANCH   5   6
BRANCH   5   8
ATOM      8  CB  ASN A   1      23.431   1.922   9.551  0.00  0.00    +0.111 C 
BRANCH   8   9
ATOM      9  CG  ASN A   1      22.270   1.003   9.281  0.00  0.00    +0.221 C 
ATOM     10  ND2 ASN A   1      21.466   0.775  10.298  0.00  0.00    -0.329 N 
ATOM     11 HD21 ASN A   1      21.600   1.289  11.192  0.00  0.00    +0.145 HD
ATOM     12 HD22 ASN A   1      20.697   0.081  10.207  0.00  0.00    +0.145 HD
ATOM     13  OD1 ASN A   1      22.159   0.425   8.199  0.00  0.00    -0.275 OA
ENDBRANCH   8   9
ENDBRANCH   5   8
ENDBRANCH   1   5
BRANCH   2  14
ATOM     14  CA  ASN A   2      27.546   3.525  10.349  0.00  0.00    +0.146 C 
BRANCH  14  15
ATOM     15  C   ASN A   2      28.889   2.964  10.767  0.00  0.00    +0.227 C 
ATOM     16  O   ASN A   2      28.984   1.821  11.225  0.00  0.00    -0.286 OA
ENDBRANCH  14  15
BRANCH  14  17
ATOM     17  CB  ASN A   2      27.095   4.635  11.293  0.00  0.00    +0.112 C 
BRANCH  17  18
ATOM     18  CG  ASN A   2      27.183   4.260  12.763  0.00  0.00    +0.222 C 
ATOM     19  ND2 ASN A   2      26.039   4.290  13.434  0.00  0.00    -0.329 N 
ATOM     20 HD21 ASN A   2      26.017   4.018  14.438  0.00  0.00    +0.145 HD
ATOM     21 HD22 ASN A   2      25.164   4.585  12.956  0.00  0.00    +0.145 HD
ATOM     22  OD1 ASN A   2      28.257   3.912  13.296  0.00  0.00    -0.275 OA
ENDBRANCH  17  18
ENDBRANCH  14  17
ENDBRANCH   2  14
TORSDOF 8
REMARK  Name = ../refined-set-2016/2wec/2wec_pocket.pdb
REMARK  246 active torsions:
REMARK  status: ('A' for Active; 'I' for Inactive)
REMARK    1  A    between atoms: _1  and  _3
REMARK    2  A    between atoms: _3  and  _4
REMARK    3  A    between atoms: _3  and  _6
REMARK    4  A    between atoms: _6  and  _7
REMARK    5  A    between atoms: _10  and  _12
REMARK    6  A    between atoms: _12  and  _13
REMARK    7  A    between atoms: _12  and  _15
REMARK    8  A    between atoms: _15  and  _16
REMARK    9  A    between atoms: _19  and  _21
REMARK   10  A    between atoms: _21  and  _22
REMARK   11  A    between atoms: _21  and  _24
REMARK   12  A    between atoms: _24  and  _25
REMARK   13  A    between atoms: _25  and  _26
REMARK   14  A    between atoms: _29  and  _31
REMARK   15  A    between atoms: _31  and  _32
REMARK   16  A    between atoms: _31  and  _34
REMARK   17  A    between atoms: _34  and  _35
REMARK   18  A    between atoms: _35  and  _36
REMARK   19  A    between atoms: _39  and  _41
REMARK   20  A    between atoms: _41  and  _42
REMARK   21  A    between atoms: _41  and  _44
REMARK   22  A    between atoms: _44  and  _45
REMARK   23  A    between atoms: _50  and  _51
REMARK   24  A    between atoms: _53  and  _55
REMARK   25  A    between atoms: _55  and  _56
REMARK   26  A    between atoms: _55  and  _58
REMARK   27  A    between atoms: _58  and  _59
REMARK   28  A    between atoms: _64  and  _66
REMARK   29  A    between atoms: _66  and  _67
REMARK   30  A    between atoms: _66  and  _69
REMARK   31  A    between atoms: _69  and  _70
REMARK   32  A    between atoms: _73  and  _75
REMARK   33  A    between atoms: _75  and  _76
REMARK   34  A    between atoms: _75  and  _78
REMARK   35  A    between atoms: _78  and  _79
REMARK   36  A    between atoms: _82  and  _84
REMARK   37  A    between atoms: _84  and  _85
REMARK   38  A    between atoms: _87  and  _89
REMARK   39  A    between atoms: _89  and  _90
REMARK   40  A    between atoms: _89  and  _92
REMARK   41  A    between atoms: _92  and  _93
REMARK   42  A    between atoms: _95  and  _97
REMARK   43  A    between atoms: _97  and  _98
REMARK   44  A    between atoms: _97  and  _100
REMARK   45  A    between atoms: _100  and  _101
REMARK   46  A    between atoms: _104  and  _106
REMARK   47  A    between atoms: _106  and  _107
REMARK   48  A    between atoms: _106  and  _109
REMARK   49  A    between atoms: _109  and  _110
REMARK   50  A    between atoms: _112  and  _114
REMARK   51  A    between atoms: _114  and  _115
REMARK   52  A    between atoms: _114  and  _117
REMARK   53  A    between atoms: _117  and  _118
REMARK   54  A    between atoms: _123  and  _124
REMARK   55  A    between atoms: _126  and  _128
REMARK   56  A    between atoms: _128  and  _129
REMARK   57  A    between atoms: _131  and  _133
REMARK   58  A    between atoms: _133  and  _134
REMARK   59  A    between atoms: _133  and  _136
REMARK   60  A    between atoms: _136  and  _137
REMARK   61  A    between atoms: _140  and  _142
REMARK   62  A    between atoms: _142  and  _143
REMARK   63  A    between atoms: _145  and  _147
REMARK   64  A    between atoms: _147  and  _148
REMARK   65  A    between atoms: _147  and  _150
REMARK   66  A    between atoms: _150  and  _151
REMARK   67  A    between atoms: _153  and  _155
REMARK   68  A    between atoms: _155  and  _156
REMARK   69  A    between atoms: _155  and  _158
REMARK   70  A    between atoms: _158  and  _159
REMARK   71  A    between atoms: _159  and  _160
REMARK   72  A    between atoms: _165  and  _167
REMARK   73  A    between atoms: _167  and  _168
REMARK   74  A    between atoms: _167  and  _170
REMARK   75  A    between atoms: _170  and  _171
REMARK   76  A    between atoms: _177  and  _179
REMARK   77  A    between atoms: _179  and  _180
REMARK   78  A    between atoms: _179  and  _182
REMARK   79  A    between atoms: _182  and  _183
REMARK   80  A    between atoms: _186  and  _188
REMARK   81  A    between atoms: _188  and  _189
REMARK   82  A    between atoms: _188  and  _191
REMARK   83  A    between atoms: _191  and  _192
REMARK   84  A    between atoms: _197  and  _199
REMARK   85  A    between atoms: _199  and  _200
REMARK   86  A    between atoms: _199  and  _202
REMARK   87  A    between atoms: _202  and  _203
REMARK   88  A    between atoms: _208  and  _210
REMARK   89  A    between atoms: _210  and  _211
REMARK   90  A    between atoms: _210  and  _213
REMARK   91  A    between atoms: _213  and  _214
REMARK   92  A    between atoms: _217  and  _219
REMARK   93  A    between atoms: _219  and  _220
REMARK   94  A    between atoms: _223  and  _225
REMARK   95  A    between atoms: _225  and  _226
REMARK   96  A    between atoms: _225  and  _228
REMARK   97  A    between atoms: _228  and  _229
REMARK   98  A    between atoms: _232  and  _234
REMARK   99  A    between atoms: _234  and  _235
REMARK  100  A    between atoms: _234  and  _237
REMARK  101  A    between atoms: _237  and  _238
REMARK  102  A    between atoms: _244  and  _246
REMARK  103  A    between atoms: _246  and  _247
REMARK  104  A    between atoms: _246  and  _249
REMARK  105  A    between atoms: _249  and  _250
REMARK  106  A    between atoms: _253  and  _255
REMARK  107  A    between atoms: _255  and  _256
REMARK  108  A    between atoms: _255  and  _258
REMARK  109  A    between atoms: _258  and  _259
REMARK  110  A    between atoms: _262  and  _264
REMARK  111  A    between atoms: _264  and  _265
REMARK  112  A    between atoms: _264  and  _267
REMARK  113  A    between atoms: _267  and  _268
REMARK  114  A    between atoms: _271  and  _273
REMARK  115  A    between atoms: _273  and  _274
REMARK  116  A    between atoms: _276  and  _278
REMARK  117  A    between atoms: _278  and  _279
REMARK  118  A    between atoms: _278  and  _281
REMARK  119  A    between atoms: _281  and  _282
REMARK  120  A    between atoms: _285  and  _287
REMARK  121  A    between atoms: _287  and  _288
REMARK  122  A    between atoms: _287  and  _290
REMARK  123  A    between atoms: _290  and  _291
REMARK  124  A    between atoms: _294  and  _296
REMARK  125  A    between atoms: _296  and  _297
REMARK  126  A    between atoms: _296  and  _299
REMARK  127  A    between atoms: _299  and  _300
REMARK  128  A    between atoms: _303  and  _305
REMARK  129  A    between atoms: _305  and  _306
REMARK  130  A    between atoms: _305  and  _308
REMARK  131  A    between atoms: _308  and  _309
REMARK  132  A    between atoms: _312  and  _314
REMARK  133  A    between atoms: _314  and  _315
REMARK  134  A    between atoms: _314  and  _317
REMARK  135  A    between atoms: _317  and  _318
REMARK  136  A    between atoms: _321  and  _323
REMARK  137  A    between atoms: _323  and  _324
REMARK  138  A    between atoms: _323  and  _326
REMARK  139  A    between atoms: _326  and  _327
REMARK  140  A    between atoms: _330  and  _332
REMARK  141  A    between atoms: _332  and  _333
REMARK  142  A    between atoms: _332  and  _335
REMARK  143  A    between atoms: _335  and  _336
REMARK  144  A    between atoms: _338  and  _340
REMARK  145  A    between atoms: _340  and  _341
REMARK  146  A    between atoms: _340  and  _343
REMARK  147  A    between atoms: _343  and  _344
REMARK  148  A    between atoms: _349  and  _351
REMARK  149  A    between atoms: _351  and  _352
REMARK  150  A    between atoms: _355  and  _357
REMARK  151  A    between atoms: _357  and  _358
REMARK  152  A    between atoms: _360  and  _362
REMARK  153  A    between atoms: _362  and  _363
REMARK  154  A    between atoms: _365  and  _367
REMARK  155  A    between atoms: _367  and  _368
REMARK  156  A    between atoms: _367  and  _370
REMARK  157  A    between atoms: _370  and  _371
REMARK  158  A    between atoms: _376  and  _377
REMARK  159  A    between atoms: _379  and  _381
REMARK  160  A    between atoms: _381  and  _382
REMARK  161  A    between atoms: _381  and  _384
REMARK  162  A    between atoms: _384  and  _385
REMARK  163  A    between atoms: _390  and  _391
REMARK  164  A    between atoms: _393  and  _395
REMARK  165  A    between atoms: _395  and  _396
REMARK  166  A    between atoms: _395  and  _398
REMARK  167  A    between atoms: _398  and  _399
REMARK  168  A    between atoms: _401  and  _403
REMARK  169  A    between atoms: _403  and  _404
REMARK  170  A    between atoms: _403  and  _406
REMARK  171  A    between atoms: _406  and  _407
REMARK  172  A    between atoms: _410  and  _412
REMARK  173  A    between atoms: _412  and  _413
REMARK  174  A    between atoms: _415  and  _417
REMARK  175  A    between atoms: _417  and  _418
REMARK  176  A    between atoms: _420  and  _422
REMARK  177  A    between atoms: _422  and  _423
REMARK  178  A    between atoms: _422  and  _425
REMARK  179  A    between atoms: _425  and  _426
REMARK  180  A    between atoms: _429  and  _431
REMARK  181  A    between atoms: _431  and  _432
REMARK  182  A    between atoms: _431  and  _434
REMARK  183  A    between atoms: _434  and  _435
REMARK  184  A    between atoms: _435  and  _436
REMARK  185  A    between atoms: _441  and  _443
REMARK  186  A    between atoms: _443  and  _444
REMARK  187  A    between atoms: _443  and  _446
REMARK  188  A    between atoms: _446  and  _447
REMARK  189  A    between atoms: _449  and  _451
REMARK  190  A    between atoms: _451  and  _452
REMARK  191  A    between atoms: _451  and  _454
REMARK  192  A    between atoms: _454  and  _455
REMARK  193  A    between atoms: _460  and  _462
REMARK  194  A    between atoms: _462  and  _463
REMARK  195  A    between atoms: _462  and  _465
REMARK  196  A    between atoms: _465  and  _466
REMARK  197  A    between atoms: _468  and  _470
REMARK  198  A    between atoms: _470  and  _471
REMARK  199  A    between atoms: _473  and  _475
REMARK  200  A    between atoms: _475  and  _476
REMARK  201  A    between atoms: _475  and  _478
REMARK  202  A    between atoms: _478  and  _479
REMARK  203  A    between atoms: _482  and  _484
REMARK  204  A    between atoms: _484  and  _485
REMARK  205  A    between atoms: _484  and  _487
REMARK  206  A    between atoms: _487  and  _488
REMARK  207  A    between atoms: _494  and  _496
REMARK  208  A    between atoms: _496  and  _497
REMARK  209  A    between atoms: _496  and  _499
REMARK  210  A    between atoms: _499  and  _500
REMARK  211  A    between atoms: _502  and  _504
REMARK  212  A    between atoms: _504  and  _505
REMARK  213  A    between atoms: _504  and  _507
REMARK  214  A    between atoms: _507  and  _508
REMARK  215  A    between atoms: _511  and  _513
REMARK  216  A    between atoms: _513  and  _514
REMARK  217  A    between atoms: _516  and  _518
REMARK  218  A    between atoms: _518  and  _519
REMARK  219  A    between atoms: _518  and  _521
REMARK  220  A    between atoms: _521  and  _522
REMARK  221  A    between atoms: _525  and  _527
REMARK  222  A    between atoms: _527  and  _528
REMARK  223  A    between atoms: _527  and  _530
REMARK  224  A    between atoms: _530  and  _531
REMARK  225  A    between atoms: _533  and  _535
REMARK  226  A    between atoms: _535  and  _536
REMARK  227  A    between atoms: _538  and  _540
REMARK  228  A    between atoms: _540  and  _541
REMARK  229  A    between atoms: _540  and  _543
REMARK  230  A    between atoms: _543  and  _544
REMARK  231  A    between atoms: _549  and  _550
REMARK  232  A    between atoms: _552  and  _554
REMARK  233  A    between atoms: _554  and  _555
REMARK  234  A    between atoms: _554  and  _557
REMARK  235  A    between atoms: _557  and  _558
REMARK  236  A    between atoms: _561  and  _563
REMARK  237  A    between atoms: _563  and  _564
REMARK  238  A    between atoms: _563  and  _566
REMARK  239  A    between atoms: _566  and  _567
REMARK  240  A    between atoms: _567  and  _568
REMARK  241  A    between atoms: _574  and  _575
REMARK  242  A    between atoms: _580  and  _582
REMARK  243  A    between atoms: _582  and  _583
REMARK  244  A    between atoms: _582  and  _585
REMARK  245  A    between atoms: _585  and  _586
REMARK  246  A    between atoms: _586  and  _587
REMARK                            x       y       z     vdW  Elec       q    Type
REMARK                         _______ _______ _______ _____ _____    ______ ____
ROOT
ATOM      1  CA  LEU A   1      30.083   9.328  14.825  0.00  0.00    +0.133 C 
ENDROOT
BRANCH   1   2
ATOM      2  N   LEU A   1      30.836   8.080  14.646  0.00  0.00    -0.239 NA
ATOM      3  H   LEU A   1      31.711   7.942  15.192  0.00  0.00    +0.142 HD
ENDBRANCH   1   2
BRANCH   1   4
ATOM      4  C   LEU A   1      30.953  10.559  14.690  0.00  0.00    +0.224 C 
ATOM      5  O   LEU A   1      32.137  10.542  15.022  0.00  0.00    -0.287 OA
ENDBRANCH   1   4
BRANCH   1   6
ATOM      6  CB  LEU A   1      29.449   9.364  16.217  0.00  0.00    +0.025 C 
BRANCH   6   7
ATOM      7  CG  LEU A   1      28.062   8.703  16.314  0.00  0.00    +0.002 C 
ATOM      8  CD2 LEU A   1      27.427   9.055  17.621  0.00  0.00    +0.000 C 
ATOM      9  CD1 LEU A   1      28.105   7.207  16.137  0.00  0.00    +0.000 C 
ENDBRANCH   6   7
ENDBRANCH   1   6
TORSDOF 4
REMARK  Name = ../refined-set-2016/2wec/2wec_pocket.pdb
REMARK  246 active torsions:
REMARK  status: ('A' for Active; 'I' for Inactive)
REMARK    1  A    between atoms: _1  and  _3
REMARK    2  A    between atoms: _3  and  _4
REMARK    3  A    between atoms: _3  and  _6
REMARK    4  A    between atoms: _6  and  _7
REMARK    5  A    between atoms: _10  and  _12
REMARK    6  A    between atoms: _12  and  _13
REMARK    7  A    between atoms: _12  and  _15
REMARK    8  A    between atoms: _15  and  _16
REMARK    9  A    between atoms: _19  and  _21
REMARK   10  A    between atoms: _21  and  _22
REMARK   11  A    between atoms: _21  and  _24
REMARK   12  A    between atoms: _24  and  _25
REMARK   13  A    between atoms: _25  and  _26
REMARK   14  A    between atoms: _29  and  _31
REMARK   15  A    between atoms: _31  and  _32
REMARK   16  A    between atoms: _31  and  _34
REMARK   17  A    between atoms: _34  and  _35
REMARK   18  A    between atoms: _35  and  _36
REMARK   19  A    between atoms: _39  and  _41
REMARK   20  A    between atoms: _41  and  _42
REMARK   21  A    between atoms: _41  and  _44
REMARK   22  A    between atoms: _44  and  _45
REMARK   23  A    between atoms: _50  and  _51
REMARK   24  A    between atoms: _53  and  _55
REMARK   25  A    between atoms: _55  and  _56
REMARK   26  A    between atoms: _55  and  _58
REMARK   27  A    between atoms: _58  and  _59
REMARK   28  A    between atoms: _64  and  _66
REMARK   29  A    between atoms: _66  and  _67
REMARK   30  A    between atoms: _66  and  _69
REMARK   31  A    between atoms: _69  and  _70
REMARK   32  A    between atoms: _73  and  _75
REMARK   33  A    between atoms: _75  and  _76
REMARK   34  A    between atoms: _75  and  _78
REMARK   35  A    between atoms: _78  and  _79
REMARK   36  A    between atoms: _82  and  _84
REMARK   37  A    between atoms: _84  and  _85
REMARK   38  A    between atoms: _87  and  _89
REMARK   39  A    between atoms: _89  and  _90
REMARK   40  A    between atoms: _89  and  _92
REMARK   41  A    between atoms: _92  and  _93
REMARK   42  A    between atoms: _95  and  _97
REMARK   43  A    between atoms: _97  and  _98
REMARK   44  A    between atoms: _97  and  _100
REMARK   45  A    between atoms: _100  and  _101
REMARK   46  A    between atoms: _104  and  _106
REMARK   47  A    between atoms: _106  and  _107
REMARK   48  A    between atoms: _106  and  _109
REMARK   49  A    between atoms: _109  and  _110
REMARK   50  A    between atoms: _112  and  _114
REMARK   51  A    between atoms: _114  and  _115
REMARK   52  A    between atoms: _114  and  _117
REMARK   53  A    between atoms: _117  and  _118
REMARK   54  A    between atoms: _123  and  _124
REMARK   55  A    between atoms: _126  and  _128
REMARK   56  A    between atoms: _128  and  _129
REMARK   57  A    between atoms: _131  and  _133
REMARK   58  A    between atoms: _133  and  _134
REMARK   59  A    between atoms: _133  and  _136
REMARK   60  A    between atoms: _136  and  _137
REMARK   61  A    between atoms: _140  and  _142
REMARK   62  A    between atoms: _142  and  _143
REMARK   63  A    between atoms: _145  and  _147
REMARK   64  A    between atoms: _147  and  _148
REMARK   65  A    between atoms: _147  and  _150
REMARK   66  A    between atoms: _150  and  _151
REMARK   67  A    between atoms: _153  and  _155
REMARK   68  A    between atoms: _155  and  _156
REMARK   69  A    between atoms: _155  and  _158
REMARK   70  A    between atoms: _158  and  _159
REMARK   71  A    between atoms: _159  and  _160
REMARK   72  A    between atoms: _165  and  _167
REMARK   73  A    between atoms: _167  and  _168
REMARK   74  A    between atoms: _167  and  _170
REMARK   75  A    between atoms: _170  and  _171
REMARK   76  A    between atoms: _177  and  _179
REMARK   77  A    between atoms: _179  and  _180
REMARK   78  A    between atoms: _179  and  _182
REMARK   79  A    between atoms: _182  and  _183
REMARK   80  A    between atoms: _186  and  _188
REMARK   81  A    between atoms: _188  and  _189
REMARK   82  A    between atoms: _188  and  _191
REMARK   83  A    between atoms: _191  and  _192
REMARK   84  A    between atoms: _197  and  _199
REMARK   85  A    between atoms: _199  and  _200
REMARK   86  A    between atoms: _199  and  _202
REMARK   87  A    between atoms: _202  and  _203
REMARK   88  A    between atoms: _208  and  _210
REMARK   89  A    between atoms: _210  and  _211
REMARK   90  A    between atoms: _210  and  _213
REMARK   91  A    between atoms: _213  and  _214
REMARK   92  A    between atoms: _217  and  _219
REMARK   93  A    between atoms: _219  and  _220
REMARK   94  A    between atoms: _223  and  _225
REMARK   95  A    between atoms: _225  and  _226
REMARK   96  A    between atoms: _225  and  _228
REMARK   97  A    between atoms: _228  and  _229
REMARK   98  A    between atoms: _232  and  _234
REMARK   99  A    between atoms: _234  and  _235
REMARK  100  A    between atoms: _234  and  _237
REMARK  101  A    between atoms: _237  and  _238
REMARK  102  A    between atoms: _244  and  _246
REMARK  103  A    between atoms: _246  and  _247
REMARK  104  A    between atoms: _246  and  _249
REMARK  105  A    between atoms: _249  and  _250
REMARK  106  A    between atoms: _253  and  _255
REMARK  107  A    between atoms: _255  and  _256
REMARK  108  A    between atoms: _255  and  _258
REMARK  109  A    between atoms: _258  and  _259
REMARK  110  A    between atoms: _262  and  _264
REMARK  111  A    between atoms: _264  and  _265
REMARK  112  A    between atoms: _264  and  _267
REMARK  113  A    between atoms: _267  and  _268
REMARK  114  A    between atoms: _271  and  _273
REMARK  115  A    between atoms: _273  and  _274
REMARK  116  A    between atoms: _276  and  _278
REMARK  117  A    between atoms: _278  and  _279
REMARK  118  A    between atoms: _278  and  _281
REMARK  119  A    between atoms: _281  and  _282
REMARK  120  A    between atoms: _285  and  _287
REMARK  121  A    between atoms: _287  and  _288
REMARK  122  A    between atoms: _287  and  _290
REMARK  123  A    between atoms: _290  and  _291
REMARK  124  A    between atoms: _294  and  _296
REMARK  125  A    between atoms: _296  and  _297
REMARK  126  A    between atoms: _296  and  _299
REMARK  127  A    between atoms: _299  and  _300
REMARK  128  A    between atoms: _303  and  _305
REMARK  129  A    between atoms: _305  and  _306
REMARK  130  A    between atoms: _305  and  _308
REMARK  131  A    between atoms: _308  and  _309
REMARK  132  A    between atoms: _312  and  _314
REMARK  133  A    between atoms: _314  and  _315
REMARK  134  A    between atoms: _314  and  _317
REMARK  135  A    between atoms: _317  and  _318
REMARK  136  A    between atoms: _321  and  _323
REMARK  137  A    between atoms: _323  and  _324
REMARK  138  A    between atoms: _323  and  _326
REMARK  139  A    between atoms: _326  and  _327
REMARK  140  A    between atoms: _330  and  _332
REMARK  141  A    between atoms: _332  and  _333
REMARK  142  A    between atoms: _332  and  _335
REMARK  143  A    between atoms: _335  and  _336
REMARK  144  A    between atoms: _338  and  _340
REMARK  145  A    between atoms: _340  and  _341
REMARK  146  A    between atoms: _340  and  _343
REMARK  147  A    between atoms: _343  and  _344
REMARK  148  A    between atoms: _349  and  _351
REMARK  149  A    between atoms: _351  and  _352
REMARK  150  A    between atoms: _355  and  _357
REMARK  151  A    between atoms: _357  and  _358
REMARK  152  A    between atoms: _360  and  _362
REMARK  153  A    between atoms: _362  and  _363
REMARK  154  A    between atoms: _365  and  _367
REMARK  155  A    between atoms: _367  and  _368
REMARK  156  A    between atoms: _367  and  _370
REMARK  157  A    between atoms: _370  and  _371
REMARK  158  A    between atoms: _376  and  _377
REMARK  159  A    between atoms: _379  and  _381
REMARK  160  A    between atoms: _381  and  _382
REMARK  161  A    between atoms: _381  and  _384
REMARK  162  A    between atoms: _384  and  _385
REMARK  163  A    between atoms: _390  and  _391
REMARK  164  A    between atoms: _393  and  _395
REMARK  165  A    between atoms: _395  and  _396
REMARK  166  A    between atoms: _395  and  _398
REMARK  167  A    between atoms: _398  and  _399
REMARK  168  A    between atoms: _401  and  _403
REMARK  169  A    between atoms: _403  and  _404
REMARK  170  A    between atoms: _403  and  _406
REMARK  171  A    between atoms: _406  and  _407
REMARK  172  A    between atoms: _410  and  _412
REMARK  173  A    between atoms: _412  and  _413
REMARK  174  A    between atoms: _415  and  _417
REMARK  175  A    between atoms: _417  and  _418
REMARK  176  A    between atoms: _420  and  _422
REMARK  177  A    between atoms: _422  and  _423
REMARK  178  A    between atoms: _422  and  _425
REMARK  179  A    between atoms: _425  and  _426
REMARK  180  A    between atoms: _429  and  _431
REMARK  181  A    between atoms: _431  and  _432
REMARK  182  A    between atoms: _431  and  _434
REMARK  183  A    between atoms: _434  and  _435
REMARK  184  A    between atoms: _435  and  _436
REMARK  185  A    between atoms: _441  and  _443
REMARK  186  A    between atoms: _443  and  _444
REMARK  187  A    between atoms: _443  and  _446
REMARK  188  A    between atoms: _446  and  _447
REMARK  189  A    between atoms: _449  and  _451
REMARK  190  A    between atoms: _451  and  _452
REMARK  191  A    between atoms: _451  and  _454
REMARK  192  A    between atoms: _454  and  _455
REMARK  193  A    between atoms: _460  and  _462
REMARK  194  A    between atoms: _462  and  _463
REMARK  195  A    between atoms: _462  and  _465
REMARK  196  A    between atoms: _465  and  _466
REMARK  197  A    between atoms: _468  and  _470
REMARK  198  A    between atoms: _470  and  _471
REMARK  199  A    between atoms: _473  and  _475
REMARK  200  A    between atoms: _475  and  _476
REMARK  201  A    between atoms: _475  and  _478
REMARK  202  A    between atoms: _478  and  _479
REMARK  203  A    between atoms: _482  and  _484
REMARK  204  A    between atoms: _484  and  _485
REMARK  205  A    between atoms: _484  and  _487
REMARK  206  A    between atoms: _487  and  _488
REMARK  207  A    between atoms: _494  and  _496
REMARK  208  A    between atoms: _496  and  _497
REMARK  209  A    between atoms: _496  and  _499
REMARK  210  A    between atoms: _499  and  _500
REMARK  211  A    between atoms: _502  and  _504
REMARK  212  A    between atoms: _504  and  _505
REMARK  213  A    between atoms: _504  and  _507
REMARK  214  A    between atoms: _507  and  _508
REMARK  215  A    between atoms: _511  and  _513
REMARK  216  A    between atoms: _513  and  _514
REMARK  217  A    between atoms: _516  and  _518
REMARK  218  A    between atoms: _518  and  _519
REMARK  219  A    between atoms: _518  and  _521
REMARK  220  A    between atoms: _521  and  _522
REMARK  221  A    between atoms: _525  and  _527
REMARK  222  A    between atoms: _527  and  _528
REMARK  223  A    between atoms: _527  and  _530
REMARK  224  A    between atoms: _530  and  _531
REMARK  225  A    between atoms: _533  and  _535
REMARK  226  A    between atoms: _535  and  _536
REMARK  227  A    between atoms: _538  and  _540
REMARK  228  A    between atoms: _540  and  _541
REMARK  229  A    between atoms: _540  and  _543
REMARK  230  A    between atoms: _543  and  _544
REMARK  231  A    between atoms: _549  and  _550
REMARK  232  A    between atoms: _552  and  _554
REMARK  233  A    between atoms: _554  and  _555
REMARK  234  A    between atoms: _554  and  _557
REMARK  235  A    between atoms: _557  and  _558
REMARK  236  A    between atoms: _561  and  _563
REMARK  237  A    between atoms: _563  and  _564
REMARK  238  A    between atoms: _563  and  _566
REMARK  239  A    between atoms: _566  and  _567
REMARK  240  A    between atoms: _567  and  _568
REMARK  241  A    between atoms: _574  and  _575
REMARK  242  A    between atoms: _580  and  _582
REMARK  243  A    between atoms: _582  and  _583
REMARK  244  A    between atoms: _582  and  _585
REMARK  245  A    between atoms: _585  and  _586
REMARK  246  A    between atoms: _586  and  _587
REMARK                            x       y       z     vdW  Elec       q    Type
REMARK                         _______ _______ _______ _____ _____    ______ ____
ROOT
ATOM      1  CA  ALA A   1      28.097  19.814  19.833  0.00  0.00    +0.133 C 
ATOM      2  CB  ALA A   1      27.841  18.919  21.012  0.00  0.00    +0.027 C 
ENDROOT
BRANCH   1   3
ATOM      3  N   ALA A   1      28.466  19.032  18.647  0.00  0.00    -0.239 NA
ATOM      4  H   ALA A   1      28.775  18.045  18.760  0.00  0.00    +0.142 HD
ENDBRANCH   1   3
BRANCH   1   5
ATOM      5  C   ALA A   1      29.329  20.740  20.092  0.00  0.00    +0.224 C 
ATOM      6  O   ALA A   1      30.277  20.723  19.313  0.00  0.00    -0.287 OA
ENDBRANCH   1   5
TORSDOF 2
REMARK  Name = ../refined-set-2016/2wec/2wec_pocket.pdb
REMARK  246 active torsions:
REMARK  status: ('A' for Active; 'I' for Inactive)
REMARK    1  A    between atoms: _1  and  _3
REMARK    2  A    between atoms: _3  and  _4
REMARK    3  A    between atoms: _3  and  _6
REMARK    4  A    between atoms: _6  and  _7
REMARK    5  A    between atoms: _10  and  _12
REMARK    6  A    between atoms: _12  and  _13
REMARK    7  A    between atoms: _12  and  _15
REMARK    8  A    between atoms: _15  and  _16
REMARK    9  A    between atoms: _19  and  _21
REMARK   10  A    between atoms: _21  and  _22
REMARK   11  A    between atoms: _21  and  _24
REMARK   12  A    between atoms: _24  and  _25
REMARK   13  A    between atoms: _25  and  _26
REMARK   14  A    between atoms: _29  and  _31
REMARK   15  A    between atoms: _31  and  _32
REMARK   16  A    between atoms: _31  and  _34
REMARK   17  A    between atoms: _34  and  _35
REMARK   18  A    between atoms: _35  and  _36
REMARK   19  A    between atoms: _39  and  _41
REMARK   20  A    between atoms: _41  and  _42
REMARK   21  A    between atoms: _41  and  _44
REMARK   22  A    between atoms: _44  and  _45
REMARK   23  A    between atoms: _50  and  _51
REMARK   24  A    between atoms: _53  and  _55
REMARK   25  A    between atoms: _55  and  _56
REMARK   26  A    between atoms: _55  and  _58
REMARK   27  A    between atoms: _58  and  _59
REMARK   28  A    between atoms: _64  and  _66
REMARK   29  A    between atoms: _66  and  _67
REMARK   30  A    between atoms: _66  and  _69
REMARK   31  A    between atoms: _69  and  _70
REMARK   32  A    between atoms: _73  and  _75
REMARK   33  A    between atoms: _75  and  _76
REMARK   34  A    between atoms: _75  and  _78
REMARK   35  A    between atoms: _78  and  _79
REMARK   36  A    between atoms: _82  and  _84
REMARK   37  A    between atoms: _84  and  _85
REMARK   38  A    between atoms: _87  and  _89
REMARK   39  A    between atoms: _89  and  _90
REMARK   40  A    between atoms: _89  and  _92
REMARK   41  A    between atoms: _92  and  _93
REMARK   42  A    between atoms: _95  and  _97
REMARK   43  A    between atoms: _97  and  _98
REMARK   44  A    between atoms: _97  and  _100
REMARK   45  A    between atoms: _100  and  _101
REMARK   46  A    between atoms: _104  and  _106
REMARK   47  A    between atoms: _106  and  _107
REMARK   48  A    between atoms: _106  and  _109
REMARK   49  A    between atoms: _109  and  _110
REMARK   50  A    between atoms: _112  and  _114
REMARK   51  A    between atoms: _114  and  _115
REMARK   52  A    between atoms: _114  and  _117
REMARK   53  A    between atoms: _117  and  _118
REMARK   54  A    between atoms: _123  and  _124
REMARK   55  A    between atoms: _126  and  _128
REMARK   56  A    between atoms: _128  and  _129
REMARK   57  A    between atoms: _131  and  _133
REMARK   58  A    between atoms: _133  and  _134
REMARK   59  A    between atoms: _133  and  _136
REMARK   60  A    between atoms: _136  and  _137
REMARK   61  A    between atoms: _140  and  _142
REMARK   62  A    between atoms: _142  and  _143
REMARK   63  A    between atoms: _145  and  _147
REMARK   64  A    between atoms: _147  and  _148
REMARK   65  A    between atoms: _147  and  _150
REMARK   66  A    between atoms: _150  and  _151
REMARK   67  A    between atoms: _153  and  _155
REMARK   68  A    between atoms: _155  and  _156
REMARK   69  A    between atoms: _155  and  _158
REMARK   70  A    between atoms: _158  and  _159
REMARK   71  A    between atoms: _159  and  _160
REMARK   72  A    between atoms: _165  and  _167
REMARK   73  A    between atoms: _167  and  _168
REMARK   74  A    between atoms: _167  and  _170
REMARK   75  A    between atoms: _170  and  _171
REMARK   76  A    between atoms: _177  and  _179
REMARK   77  A    between atoms: _179  and  _180
REMARK   78  A    between atoms: _179  and  _182
REMARK   79  A    between atoms: _182  and  _183
REMARK   80  A    between atoms: _186  and  _188
REMARK   81  A    between atoms: _188  and  _189
REMARK   82  A    between atoms: _188  and  _191
REMARK   83  A    between atoms: _191  and  _192
REMARK   84  A    between atoms: _197  and  _199
REMARK   85  A    between atoms: _199  and  _200
REMARK   86  A    between atoms: _199  and  _202
REMARK   87  A    between atoms: _202  and  _203
REMARK   88  A    between atoms: _208  and  _210
REMARK   89  A    between atoms: _210  and  _211
REMARK   90  A    between atoms: _210  and  _213
REMARK   91  A    between atoms: _213  and  _214
REMARK   92  A    between atoms: _217  and  _219
REMARK   93  A    between atoms: _219  and  _220
REMARK   94  A    between atoms: _223  and  _225
REMARK   95  A    between atoms: _225  and  _226
REMARK   96  A    between atoms: _225  and  _228
REMARK   97  A    between atoms: _228  and  _229
REMARK   98  A    between atoms: _232  and  _234
REMARK   99  A    between atoms: _234  and  _235
REMARK  100  A    between atoms: _234  and  _237
REMARK  101  A    between atoms: _237  and  _238
REMARK  102  A    between atoms: _244  and  _246
REMARK  103  A    between atoms: _246  and  _247
REMARK  104  A    between atoms: _246  and  _249
REMARK  105  A    between atoms: _249  and  _250
REMARK  106  A    between atoms: _253  and  _255
REMARK  107  A    between atoms: _255  and  _256
REMARK  108  A    between atoms: _255  and  _258
REMARK  109  A    between atoms: _258  and  _259
REMARK  110  A    between atoms: _262  and  _264
REMARK  111  A    between atoms: _264  and  _265
REMARK  112  A    between atoms: _264  and  _267
REMARK  113  A    between atoms: _267  and  _268
REMARK  114  A    between atoms: _271  and  _273
REMARK  115  A    between atoms: _273  and  _274
REMARK  116  A    between atoms: _276  and  _278
REMARK  117  A    between atoms: _278  and  _279
REMARK  118  A    between atoms: _278  and  _281
REMARK  119  A    between atoms: _281  and  _282
REMARK  120  A    between atoms: _285  and  _287
REMARK  121  A    between atoms: _287  and  _288
REMARK  122  A    between atoms: _287  and  _290
REMARK  123  A    between atoms: _290  and  _291
REMARK  124  A    between atoms: _294  and  _296
REMARK  125  A    between atoms: _296  and  _297
REMARK  126  A    between atoms: _296  and  _299
REMARK  127  A    between atoms: _299  and  _300
REMARK  128  A    between atoms: _303  and  _305
REMARK  129  A    between atoms: _305  and  _306
REMARK  130  A    between atoms: _305  and  _308
REMARK  131  A    between atoms: _308  and  _309
REMARK  132  A    between atoms: _312  and  _314
REMARK  133  A    between atoms: _314  and  _315
REMARK  134  A    between atoms: _314  and  _317
REMARK  135  A    between atoms: _317  and  _318
REMARK  136  A    between atoms: _321  and  _323
REMARK  137  A    between atoms: _323  and  _324
REMARK  138  A    between atoms: _323  and  _326
REMARK  139  A    between atoms: _326  and  _327
REMARK  140  A    between atoms: _330  and  _332
REMARK  141  A    between atoms: _332  and  _333
REMARK  142  A    between atoms: _332  and  _335
REMARK  143  A    between atoms: _335  and  _336
REMARK  144  A    between atoms: _338  and  _340
REMARK  145  A    between atoms: _340  and  _341
REMARK  146  A    between atoms: _340  and  _343
REMARK  147  A    between atoms: _343  and  _344
REMARK  148  A    between atoms: _349  and  _351
REMARK  149  A    between atoms: _351  and  _352
REMARK  150  A    between atoms: _355  and  _357
REMARK  151  A    between atoms: _357  and  _358
REMARK  152  A    between atoms: _360  and  _362
REMARK  153  A    between atoms: _362  and  _363
REMARK  154  A    between atoms: _365  and  _367
REMARK  155  A    between atoms: _367  and  _368
REMARK  156  A    between atoms: _367  and  _370
REMARK  157  A    between atoms: _370  and  _371
REMARK  158  A    between atoms: _376  and  _377
REMARK  159  A    between atoms: _379  and  _381
REMARK  160  A    between atoms: _381  and  _382
REMARK  161  A    between atoms: _381  and  _384
REMARK  162  A    between atoms: _384  and  _385
REMARK  163  A    between atoms: _390  and  _391
REMARK  164  A    between atoms: _393  and  _395
REMARK  165  A    between atoms: _395  and  _396
REMARK  166  A    between atoms: _395  and  _398
REMARK  167  A    between atoms: _398  and  _399
REMARK  168  A    between atoms: _401  and  _403
REMARK  169  A    between atoms: _403  and  _404
REMARK  170  A    between atoms: _403  and  _406
REMARK  171  A    between atoms: _406  and  _407
REMARK  172  A    between atoms: _410  and  _412
REMARK  173  A    between atoms: _412  and  _413
REMARK  174  A    between atoms: _415  and  _417
REMARK  175  A    between atoms: _417  and  _418
REMARK  176  A    between atoms: _420  and  _422
REMARK  177  A    between atoms: _422  and  _423
REMARK  178  A    between atoms: _422  and  _425
REMARK  179  A    between atoms: _425  and  _426
REMARK  180  A    between atoms: _429  and  _431
REMARK  181  A    between atoms: _431  and  _432
REMARK  182  A    between atoms: _431  and  _434
REMARK  183  A    between atoms: _434  and  _435
REMARK  184  A    between atoms: _435  and  _436
REMARK  185  A    between atoms: _441  and  _443
REMARK  186  A    between atoms: _443  and  _444
REMARK  187  A    between atoms: _443  and  _446
REMARK  188  A    between atoms: _446  and  _447
REMARK  189  A    between atoms: _449  and  _451
REMARK  190  A    between atoms: _451  and  _452
REMARK  191  A    between atoms: _451  and  _454
REMARK  192  A    between atoms: _454  and  _455
REMARK  193  A    between atoms: _460  and  _462
REMARK  194  A    between atoms: _462  and  _463
REMARK  195  A    between atoms: _462  and  _465
REMARK  196  A    between atoms: _465  and  _466
REMARK  197  A    between atoms: _468  and  _470
REMARK  198  A    between atoms: _470  and  _471
REMARK  199  A    between atoms: _473  and  _475
REMARK  200  A    between atoms: _475  and  _476
REMARK  201  A    between atoms: _475  and  _478
REMARK  202  A    between atoms: _478  and  _479
REMARK  203  A    between atoms: _482  and  _484
REMARK  204  A    between atoms: _484  and  _485
REMARK  205  A    between atoms: _484  and  _487
REMARK  206  A    between atoms: _487  and  _488
REMARK  207  A    between atoms: _494  and  _496
REMARK  208  A    between atoms: _496  and  _497
REMARK  209  A    between atoms: _496  and  _499
REMARK  210  A    between atoms: _499  and  _500
REMARK  211  A    between atoms: _502  and  _504
REMARK  212  A    between atoms: _504  and  _505
REMARK  213  A    between atoms: _504  and  _507
REMARK  214  A    between atoms: _507  and  _508
REMARK  215  A    between atoms: _511  and  _513
REMARK  216  A    between atoms: _513  and  _514
REMARK  217  A    between atoms: _516  and  _518
REMARK  218  A    between atoms: _518  and  _519
REMARK  219  A    between atoms: _518  and  _521
REMARK  220  A    between atoms: _521  and  _522
REMARK  221  A    between atoms: _525  and  _527
REMARK  222  A    between atoms: _527  and  _528
REMARK  223  A    between atoms: _527  and  _530
REMARK  224  A    between atoms: _530  and  _531
REMARK  225  A    between atoms: _533  and  _535
REMARK  226  A    between atoms: _535  and  _536
REMARK  227  A    between atoms: _538  and  _540
REMARK  228  A    between atoms: _540  and  _541
REMARK  229  A    between atoms: _540  and  _543
REMARK  230  A    between atoms: _543  and  _544
REMARK  231  A    between atoms: _549  and  _550
REMARK  232  A    between atoms: _552  and  _554
REMARK  233  A    between atoms: _554  and  _555
REMARK  234  A    between atoms: _554  and  _557
REMARK  235  A    between atoms: _557  and  _558
REMARK  236  A    between atoms: _561  and  _563
REMARK  237  A    between atoms: _563  and  _564
REMARK  238  A    between atoms: _563  and  _566
REMARK  239  A    between atoms: _566  and  _567
REMARK  240  A    between atoms: _567  and  _568
REMARK  241  A    between atoms: _574  and  _575
REMARK  242  A    between atoms: _580  and  _582
REMARK  243  A    between atoms: _582  and  _583
REMARK  244  A    between atoms: _582  and  _585
REMARK  245  A    between atoms: _585  and  _586
REMARK  246  A    between atoms: _586  and  _587
REMARK                            x       y       z     vdW  Elec       q    Type
REMARK                         _______ _______ _______ _____ _____    ______ ____
ROOT
ATOM      1  CA  ILE A   1      32.289  18.438  26.014  0.00  0.00    +0.133 C 
ENDROOT
BRANCH   1   2
ATOM      2  N   ILE A   1      32.652  19.758  25.520  0.00  0.00    -0.239 NA
ATOM      3  H   ILE A   1      32.271  20.096  24.613  0.00  0.00    +0.142 HD
ENDBRANCH   1   2
BRANCH   1   4
ATOM      4  CB  ILE A   1      30.795  18.192  26.130  0.00  0.00    +0.023 C 
ATOM      5  CG2 ILE A   1      30.186  19.186  27.092  0.00  0.00    +0.002 C 
BRANCH   4   6
ATOM      6  CG1 ILE A   1      30.115  18.283  24.763  0.00  0.00    +0.002 C 
ATOM      7  CD1 ILE A   1      28.625  17.866  24.800  0.00  0.00    +0.000 C 
ENDBRANCH   4   6
ENDBRANCH   1   4
BRANCH   1   8
ATOM      8  C   ILE A   1      32.999  17.278  25.320  0.00  0.00    +0.224 C 
ATOM      9  O   ILE A   1      32.627  16.127  25.526  0.00  0.00    -0.287 OA
ENDBRANCH   1   8
TORSDOF 4
REMARK  Name = ../refined-set-2016/2wec/2wec_pocket.pdb
REMARK  246 active torsions:
REMARK  status: ('A' for Active; 'I' for Inactive)
REMARK    1  A    between atoms: _1  and  _3
REMARK    2  A    between atoms: _3  and  _4
REMARK    3  A    between atoms: _3  and  _6
REMARK    4  A    between atoms: _6  and  _7
REMARK    5  A    between atoms: _10  and  _12
REMARK    6  A    between atoms: _12  and  _13
REMARK    7  A    between atoms: _12  and  _15
REMARK    8  A    between atoms: _15  and  _16
REMARK    9  A    between atoms: _19  and  _21
REMARK   10  A    between atoms: _21  and  _22
REMARK   11  A    between atoms: _21  and  _24
REMARK   12  A    between atoms: _24  and  _25
REMARK   13  A    between atoms: _25  and  _26
REMARK   14  A    between atoms: _29  and  _31
REMARK   15  A    between atoms: _31  and  _32
REMARK   16  A    between atoms: _31  and  _34
REMARK   17  A    between atoms: _34  and  _35
REMARK   18  A    between atoms: _35  and  _36
REMARK   19  A    between atoms: _39  and  _41
REMARK   20  A    between atoms: _41  and  _42
REMARK   21  A    between atoms: _41  and  _44
REMARK   22  A    between atoms: _44  and  _45
REMARK   23  A    between atoms: _50  and  _51
REMARK   24  A    between atoms: _53  and  _55
REMARK   25  A    between atoms: _55  and  _56
REMARK   26  A    between atoms: _55  and  _58
REMARK   27  A    between atoms: _58  and  _59
REMARK   28  A    between atoms: _64  and  _66
REMARK   29  A    between atoms: _66  and  _67
REMARK   30  A    between atoms: _66  and  _69
REMARK   31  A    between atoms: _69  and  _70
REMARK   32  A    between atoms: _73  and  _75
REMARK   33  A    between atoms: _75  and  _76
REMARK   34  A    between atoms: _75  and  _78
REMARK   35  A    between atoms: _78  and  _79
REMARK   36  A    between atoms: _82  and  _84
REMARK   37  A    between atoms: _84  and  _85
REMARK   38  A    between atoms: _87  and  _89
REMARK   39  A    between atoms: _89  and  _90
REMARK   40  A    between atoms: _89  and  _92
REMARK   41  A    between atoms: _92  and  _93
REMARK   42  A    between atoms: _95  and  _97
REMARK   43  A    between atoms: _97  and  _98
REMARK   44  A    between atoms: _97  and  _100
REMARK   45  A    between atoms: _100  and  _101
REMARK   46  A    between atoms: _104  and  _106
REMARK   47  A    between atoms: _106  and  _107
REMARK   48  A    between atoms: _106  and  _109
REMARK   49  A    between atoms: _109  and  _110
REMARK   50  A    between atoms: _112  and  _114
REMARK   51  A    between atoms: _114  and  _115
REMARK   52  A    between atoms: _114  and  _117
REMARK   53  A    between atoms: _117  and  _118
REMARK   54  A    between atoms: _123  and  _124
REMARK   55  A    between atoms: _126  and  _128
REMARK   56  A    between atoms: _128  and  _129
REMARK   57  A    between atoms: _131  and  _133
REMARK   58  A    between atoms: _133  and  _134
REMARK   59  A    between atoms: _133  and  _136
REMARK   60  A    between atoms: _136  and  _137
REMARK   61  A    between atoms: _140  and  _142
REMARK   62  A    between atoms: _142  and  _143
REMARK   63  A    between atoms: _145  and  _147
REMARK   64  A    between atoms: _147  and  _148
REMARK   65  A    between atoms: _147  and  _150
REMARK   66  A    between atoms: _150  and  _151
REMARK   67  A    between atoms: _153  and  _155
REMARK   68  A    between atoms: _155  and  _156
REMARK   69  A    between atoms: _155  and  _158
REMARK   70  A    between atoms: _158  and  _159
REMARK   71  A    between atoms: _159  and  _160
REMARK   72  A    between atoms: _165  and  _167
REMARK   73  A    between atoms: _167  and  _168
REMARK   74  A    between atoms: _167  and  _170
REMARK   75  A    between atoms: _170  and  _171
REMARK   76  A    between atoms: _177  and  _179
REMARK   77  A    between atoms: _179  and  _180
REMARK   78  A    between atoms: _179  and  _182
REMARK   79  A    between atoms: _182  and  _183
REMARK   80  A    between atoms: _186  and  _188
REMARK   81  A    between atoms: _188  and  _189
REMARK   82  A    between atoms: _188  and  _191
REMARK   83  A    between atoms: _191  and  _192
REMARK   84  A    between atoms: _197  and  _199
REMARK   85  A    between atoms: _199  and  _200
REMARK   86  A    between atoms: _199  and  _202
REMARK   87  A    between atoms: _202  and  _203
REMARK   88  A    between atoms: _208  and  _210
REMARK   89  A    between atoms: _210  and  _211
REMARK   90  A    between atoms: _210  and  _213
REMARK   91  A    between atoms: _213  and  _214
REMARK   92  A    between atoms: _217  and  _219
REMARK   93  A    between atoms: _219  and  _220
REMARK   94  A    between atoms: _223  and  _225
REMARK   95  A    between atoms: _225  and  _226
REMARK   96  A    between atoms: _225  and  _228
REMARK   97  A    between atoms: _228  and  _229
REMARK   98  A    between atoms: _232  and  _234
REMARK   99  A    between atoms: _234  and  _235
REMARK  100  A    between atoms: _234  and  _237
REMARK  101  A    between atoms: _237  and  _238
REMARK  102  A    between atoms: _244  and  _246
REMARK  103  A    between atoms: _246  and  _247
REMARK  104  A    between atoms: _246  and  _249
REMARK  105  A    between atoms: _249  and  _250
REMARK  106  A    between atoms: _253  and  _255
REMARK  107  A    between atoms: _255  and  _256
REMARK  108  A    between atoms: _255  and  _258
REMARK  109  A    between atoms: _258  and  _259
REMARK  110  A    between atoms: _262  and  _264
REMARK  111  A    between atoms: _264  and  _265
REMARK  112  A    between atoms: _264  and  _267
REMARK  113  A    between atoms: _267  and  _268
REMARK  114  A    between atoms: _271  and  _273
REMARK  115  A    between atoms: _273  and  _274
REMARK  116  A    between atoms: _276  and  _278
REMARK  117  A    between atoms: _278  and  _279
REMARK  118  A    between atoms: _278  and  _281
REMARK  119  A    between atoms: _281  and  _282
REMARK  120  A    between atoms: _285  and  _287
REMARK  121  A    between atoms: _287  and  _288
REMARK  122  A    between atoms: _287  and  _290
REMARK  123  A    between atoms: _290  and  _291
REMARK  124  A    between atoms: _294  and  _296
REMARK  125  A    between atoms: _296  and  _297
REMARK  126  A    between atoms: _296  and  _299
REMARK  127  A    between atoms: _299  and  _300
REMARK  128  A    between atoms: _303  and  _305
REMARK  129  A    between atoms: _305  and  _306
REMARK  130  A    between atoms: _305  and  _308
REMARK  131  A    between atoms: _308  and  _309
REMARK  132  A    between atoms: _312  and  _314
REMARK  133  A    between atoms: _314  and  _315
REMARK  134  A    between atoms: _314  and  _317
REMARK  135  A    between atoms: _317  and  _318
REMARK  136  A    between atoms: _321  and  _323
REMARK  137  A    between atoms: _323  and  _324
REMARK  138  A    between atoms: _323  and  _326
REMARK  139  A    between atoms: _326  and  _327
REMARK  140  A    between atoms: _330  and  _332
REMARK  141  A    between atoms: _332  and  _333
REMARK  142  A    between atoms: _332  and  _335
REMARK  143  A    between atoms: _335  and  _336
REMARK  144  A    between atoms: _338  and  _340
REMARK  145  A    between atoms: _340  and  _341
REMARK  146  A    between atoms: _340  and  _343
REMARK  147  A    between atoms: _343  and  _344
REMARK  148  A    between atoms: _349  and  _351
REMARK  149  A    between atoms: _351  and  _352
REMARK  150  A    between atoms: _355  and  _357
REMARK  151  A    between atoms: _357  and  _358
REMARK  152  A    between atoms: _360  and  _362
REMARK  153  A    between atoms: _362  and  _363
REMARK  154  A    between atoms: _365  and  _367
REMARK  155  A    between atoms: _367  and  _368
REMARK  156  A    between atoms: _367  and  _370
REMARK  157  A    between atoms: _370  and  _371
REMARK  158  A    between atoms: _376  and  _377
REMARK  159  A    between atoms: _379  and  _381
REMARK  160  A    between atoms: _381  and  _382
REMARK  161  A    between atoms: _381  and  _384
REMARK  162  A    between atoms: _384  and  _385
REMARK  163  A    between atoms: _390  and  _391
REMARK  164  A    between atoms: _393  and  _395
REMARK  165  A    between atoms: _395  and  _396
REMARK  166  A    between atoms: _395  and  _398
REMARK  167  A    between atoms: _398  and  _399
REMARK  168  A    between atoms: _401  and  _403
REMARK  169  A    between atoms: _403  and  _404
REMARK  170  A    between atoms: _403  and  _406
REMARK  171  A    between atoms: _406  and  _407
REMARK  172  A    between atoms: _410  and  _412
REMARK  173  A    between atoms: _412  and  _413
REMARK  174  A    between atoms: _415  and  _417
REMARK  175  A    between atoms: _417  and  _418
REMARK  176  A    between atoms: _420  and  _422
REMARK  177  A    between atoms: _422  and  _423
REMARK  178  A    between atoms: _422  and  _425
REMARK  179  A    between atoms: _425  and  _426
REMARK  180  A    between atoms: _429  and  _431
REMARK  181  A    between atoms: _431  and  _432
REMARK  182  A    between atoms: _431  and  _434
REMARK  183  A    between atoms: _434  and  _435
REMARK  184  A    between atoms: _435  and  _436
REMARK  185  A    between atoms: _441  and  _443
REMARK  186  A    between atoms: _443  and  _444
REMARK  187  A    between atoms: _443  and  _446
REMARK  188  A    between atoms: _446  and  _447
REMARK  189  A    between atoms: _449  and  _451
REMARK  190  A    between atoms: _451  and  _452
REMARK  191  A    between atoms: _451  and  _454
REMARK  192  A    between atoms: _454  and  _455
REMARK  193  A    between atoms: _460  and  _462
REMARK  194  A    between atoms: _462  and  _463
REMARK  195  A    between atoms: _462  and  _465
REMARK  196  A    between atoms: _465  and  _466
REMARK  197  A    between atoms: _468  and  _470
REMARK  198  A    between atoms: _470  and  _471
REMARK  199  A    between atoms: _473  and  _475
REMARK  200  A    between atoms: _475  and  _476
REMARK  201  A    between atoms: _475  and  _478
REMARK  202  A    between atoms: _478  and  _479
REMARK  203  A    between atoms: _482  and  _484
REMARK  204  A    between atoms: _484  and  _485
REMARK  205  A    between atoms: _484  and  _487
REMARK  206  A    between atoms: _487  and  _488
REMARK  207  A    between atoms: _494  and  _496
REMARK  208  A    between atoms: _496  and  _497
REMARK  209  A    between atoms: _496  and  _499
REMARK  210  A    between atoms: _499  and  _500
REMARK  211  A    between atoms: _502  and  _504
REMARK  212  A    between atoms: _504  and  _505
REMARK  213  A    between atoms: _504  and  _507
REMARK  214  A    between atoms: _507  and  _508
REMARK  215  A    between atoms: _511  and  _513
REMARK  216  A    between atoms: _513  and  _514
REMARK  217  A    between atoms: _516  and  _518
REMARK  218  A    between atoms: _518  and  _519
REMARK  219  A    between atoms: _518  and  _521
REMARK  220  A    between atoms: _521  and  _522
REMARK  221  A    between atoms: _525  and  _527
REMARK  222  A    between atoms: _527  and  _528
REMARK  223  A    between atoms: _527  and  _530
REMARK  224  A    between atoms: _530  and  _531
REMARK  225  A    between atoms: _533  and  _535
REMARK  226  A    between atoms: _535  and  _536
REMARK  227  A    between atoms: _538  and  _540
REMARK  228  A    between atoms: _540  and  _541
REMARK  229  A    between atoms: _540  and  _543
REMARK  230  A    between atoms: _543  and  _544
REMARK  231  A    between atoms: _549  and  _550
REMARK  232  A    between atoms: _552  and  _554
REMARK  233  A    between atoms: _554  and  _555
REMARK  234  A    between atoms: _554  and  _557
REMARK  235  A    between atoms: _557  and  _558
REMARK  236  A    between atoms: _561  and  _563
REMARK  237  A    between atoms: _563  and  _564
REMARK  238  A    between atoms: _563  and  _566
REMARK  239  A    between atoms: _566  and  _567
REMARK  240  A    between atoms: _567  and  _568
REMARK  241  A    between atoms: _574  and  _575
REMARK  242  A    between atoms: _580  and  _582
REMARK  243  A    between atoms: _582  and  _583
REMARK  244  A    between atoms: _582  and  _585
REMARK  245  A    between atoms: _585  and  _586
REMARK  246  A    between atoms: _586  and  _587
REMARK                            x       y       z     vdW  Elec       q    Type
REMARK                         _______ _______ _______ _____ _____    ______ ____
ROOT
ATOM      1  CB  PHE A   1      23.534  20.962  24.357  0.00  0.00    +0.051 C 
ENDROOT
BRANCH   1   2
ATOM      2  CG  PHE A   1      23.848  19.674  25.078  0.00  0.00    -0.020 A 
ATOM      3  CD2 PHE A   1      23.539  19.541  26.413  0.00  0.00    -0.004 A 
ATOM      4  CE2 PHE A   1      23.824  18.338  27.095  0.00  0.00    -0.000 A 
ATOM      5  CZ  PHE A   1      24.408  17.269  26.425  0.00  0.00    -0.000 A 
ATOM      6  CE1 PHE A   1      24.726  17.379  25.102  0.00  0.00    -0.000 A 
ATOM      7  CD1 PHE A   1      24.419  18.580  24.407  0.00  0.00    -0.004 A 
ENDBRANCH   1   2
BRANCH   1   8
ATOM      8  CA  PHE A   1      24.761  21.663  23.734  0.00  0.00    +0.137 C 
BRANCH   8   9
ATOM      9  N   PHE A   1      25.785  21.975  24.738  0.00  0.00    -0.239 NA
ATOM     10  H   PHE A   1      25.517  22.408  25.645  0.00  0.00    +0.142 HD
ENDBRANCH   8   9
BRANCH   8  11
ATOM     11  C   PHE A   1      24.231  22.892  23.009  0.00  0.00    +0.224 C 
ATOM     12  O   PHE A   1      24.404  24.018  23.479  0.00  0.00    -0.287 OA
ENDBRANCH   8  11
ENDBRANCH   1   8
TORSDOF 4
REMARK  Name = ../refined-set-2016/2wec/2wec_pocket.pdb
REMARK  246 active torsions:
REMARK  status: ('A' for Active; 'I' for Inactive)
REMARK    1  A    between atoms: _1  and  _3
REMARK    2  A    between atoms: _3  and  _4
REMARK    3  A    between atoms: _3  and  _6
REMARK    4  A    between atoms: _6  and  _7
REMARK    5  A    between atoms: _10  and  _12
REMARK    6  A    between atoms: _12  and  _13
REMARK    7  A    between atoms: _12  and  _15
REMARK    8  A    between atoms: _15  and  _16
REMARK    9  A    between atoms: _19  and  _21
REMARK   10  A    between atoms: _21  and  _22
REMARK   11  A    between atoms: _21  and  _24
REMARK   12  A    between atoms: _24  and  _25
REMARK   13  A    between atoms: _25  and  _26
REMARK   14  A    between atoms: _29  and  _31
REMARK   15  A    between atoms: _31  and  _32
REMARK   16  A    between atoms: _31  and  _34
REMARK   17  A    between atoms: _34  and  _35
REMARK   18  A    between atoms: _35  and  _36
REMARK   19  A    between atoms: _39  and  _41
REMARK   20  A    between atoms: _41  and  _42
REMARK   21  A    between atoms: _41  and  _44
REMARK   22  A    between atoms: _44  and  _45
REMARK   23  A    between atoms: _50  and  _51
REMARK   24  A    between atoms: _53  and  _55
REMARK   25  A    between atoms: _55  and  _56
REMARK   26  A    between atoms: _55  and  _58
REMARK   27  A    between atoms: _58  and  _59
REMARK   28  A    between atoms: _64  and  _66
REMARK   29  A    between atoms: _66  and  _67
REMARK   30  A    between atoms: _66  and  _69
REMARK   31  A    between atoms: _69  and  _70
REMARK   32  A    between atoms: _73  and  _75
REMARK   33  A    between atoms: _75  and  _76
REMARK   34  A    between atoms: _75  and  _78
REMARK   35  A    between atoms: _78  and  _79
REMARK   36  A    between atoms: _82  and  _84
REMARK   37  A    between atoms: _84  and  _85
REMARK   38  A    between atoms: _87  and  _89
REMARK   39  A    between atoms: _89  and  _90
REMARK   40  A    between atoms: _89  and  _92
REMARK   41  A    between atoms: _92  and  _93
REMARK   42  A    between atoms: _95  and  _97
REMARK   43  A    between atoms: _97  and  _98
REMARK   44  A    between atoms: _97  and  _100
REMARK   45  A    between atoms: _100  and  _101
REMARK   46  A    between atoms: _104  and  _106
REMARK   47  A    between atoms: _106  and  _107
REMARK   48  A    between atoms: _106  and  _109
REMARK   49  A    between atoms: _109  and  _110
REMARK   50  A    between atoms: _112  and  _114
REMARK   51  A    between atoms: _114  and  _115
REMARK   52  A    between atoms: _114  and  _117
REMARK   53  A    between atoms: _117  and  _118
REMARK   54  A    between atoms: _123  and  _124
REMARK   55  A    between atoms: _126  and  _128
REMARK   56  A    between atoms: _128  and  _129
REMARK   57  A    between atoms: _131  and  _133
REMARK   58  A    between atoms: _133  and  _134
REMARK   59  A    between atoms: _133  and  _136
REMARK   60  A    between atoms: _136  and  _137
REMARK   61  A    between atoms: _140  and  _142
REMARK   62  A    between atoms: _142  and  _143
REMARK   63  A    between atoms: _145  and  _147
REMARK   64  A    between atoms: _147  and  _148
REMARK   65  A    between atoms: _147  and  _150
REMARK   66  A    between atoms: _150  and  _151
REMARK   67  A    between atoms: _153  and  _155
REMARK   68  A    between atoms: _155  and  _156
REMARK   69  A    between atoms: _155  and  _158
REMARK   70  A    between atoms: _158  and  _159
REMARK   71  A    between atoms: _159  and  _160
REMARK   72  A    between atoms: _165  and  _167
REMARK   73  A    between atoms: _167  and  _168
REMARK   74  A    between atoms: _167  and  _170
REMARK   75  A    between atoms: _170  and  _171
REMARK   76  A    between atoms: _177  and  _179
REMARK   77  A    between atoms: _179  and  _180
REMARK   78  A    between atoms: _179  and  _182
REMARK   79  A    between atoms: _182  and  _183
REMARK   80  A    between atoms: _186  and  _188
REMARK   81  A    between atoms: _188  and  _189
REMARK   82  A    between atoms: _188  and  _191
REMARK   83  A    between atoms: _191  and  _192
REMARK   84  A    between atoms: _197  and  _199
REMARK   85  A    between atoms: _199  and  _200
REMARK   86  A    between atoms: _199  and  _202
REMARK   87  A    between atoms: _202  and  _203
REMARK   88  A    between atoms: _208  and  _210
REMARK   89  A    between atoms: _210  and  _211
REMARK   90  A    between atoms: _210  and  _213
REMARK   91  A    between atoms: _213  and  _214
REMARK   92  A    between atoms: _217  and  _219
REMARK   93  A    between atoms: _219  and  _220
REMARK   94  A    between atoms: _223  and  _225
REMARK   95  A    between atoms: _225  and  _226
REMARK   96  A    between atoms: _225  and  _228
REMARK   97  A    between atoms: _228  and  _229
REMARK   98  A    between atoms: _232  and  _234
REMARK   99  A    between atoms: _234  and  _235
REMARK  100  A    between atoms: _234  and  _237
REMARK  101  A    between atoms: _237  and  _238
REMARK  102  A    between atoms: _244  and  _246
REMARK  103  A    between atoms: _246  and  _247
REMARK  104  A    between atoms: _246  and  _249
REMARK  105  A    between atoms: _249  and  _250
REMARK  106  A    between atoms: _253  and  _255
REMARK  107  A    between atoms: _255  and  _256
REMARK  108  A    between atoms: _255  and  _258
REMARK  109  A    between atoms: _258  and  _259
REMARK  110  A    between atoms: _262  and  _264
REMARK  111  A    between atoms: _264  and  _265
REMARK  112  A    between atoms: _264  and  _267
REMARK  113  A    between atoms: _267  and  _268
REMARK  114  A    between atoms: _271  and  _273
REMARK  115  A    between atoms: _273  and  _274
REMARK  116  A    between atoms: _276  and  _278
REMARK  117  A    between atoms: _278  and  _279
REMARK  118  A    between atoms: _278  and  _281
REMARK  119  A    between atoms: _281  and  _282
REMARK  120  A    between atoms: _285  and  _287
REMARK  121  A    between atoms: _287  and  _288
REMARK  122  A    between atoms: _287  and  _290
REMARK  123  A    between atoms: _290  and  _291
REMARK  124  A    between atoms: _294  and  _296
REMARK  125  A    between atoms: _296  and  _297
REMARK  126  A    between atoms: _296  and  _299
REMARK  127  A    between atoms: _299  and  _300
REMARK  128  A    between atoms: _303  and  _305
REMARK  129  A    between atoms: _305  and  _306
REMARK  130  A    between atoms: _305  and  _308
REMARK  131  A    between atoms: _308  and  _309
REMARK  132  A    between atoms: _312  and  _314
REMARK  133  A    between atoms: _314  and  _315
REMARK  134  A    between atoms: _314  and  _317
REMARK  135  A    between atoms: _317  and  _318
REMARK  136  A    between atoms: _321  and  _323
REMARK  137  A    between atoms: _323  and  _324
REMARK  138  A    between atoms: _323  and  _326
REMARK  139  A    between atoms: _326  and  _327
REMARK  140  A    between atoms: _330  and  _332
REMARK  141  A    between atoms: _332  and  _333
REMARK  142  A    between atoms: _332  and  _335
REMARK  143  A    between atoms: _335  and  _336
REMARK  144  A    between atoms: _338  and  _340
REMARK  145  A    between atoms: _340  and  _341
REMARK  146  A    between atoms: _340  and  _343
REMARK  147  A    between atoms: _343  and  _344
REMARK  148  A    between atoms: _349  and  _351
REMARK  149  A    between atoms: _351  and  _352
REMARK  150  A    between atoms: _355  and  _357
REMARK  151  A    between atoms: _357  and  _358
REMARK  152  A    between atoms: _360  and  _362
REMARK  153  A    between atoms: _362  and  _363
REMARK  154  A    between atoms: _365  and  _367
REMARK  155  A    between atoms: _367  and  _368
REMARK  156  A    between atoms: _367  and  _370
REMARK  157  A    between atoms: _370  and  _371
REMARK  158  A    between atoms: _376  and  _377
REMARK  159  A    between atoms: _379  and  _381
REMARK  160  A    between atoms: _381  and  _382
REMARK  161  A    between atoms: _381  and  _384
REMARK  162  A    between atoms: _384  and  _385
REMARK  163  A    between atoms: _390  and  _391
REMARK  164  A    between atoms: _393  and  _395
REMARK  165  A    between atoms: _395  and  _396
REMARK  166  A    between atoms: _395  and  _398
REMARK  167  A    between atoms: _398  and  _399
REMARK  168  A    between atoms: _401  and  _403
REMARK  169  A    between atoms: _403  and  _404
REMARK  170  A    between atoms: _403  and  _406
REMARK  171  A    between atoms: _406  and  _407
REMARK  172  A    between atoms: _410  and  _412
REMARK  173  A    between atoms: _412  and  _413
REMARK  174  A    between atoms: _415  and  _417
REMARK  175  A    between atoms: _417  and  _418
REMARK  176  A    between atoms: _420  and  _422
REMARK  177  A    between atoms: _422  and  _423
REMARK  178  A    between atoms: _422  and  _425
REMARK  179  A    between atoms: _425  and  _426
REMARK  180  A    between atoms: _429  and  _431
REMARK  181  A    between atoms: _431  and  _432
REMARK  182  A    between atoms: _431  and  _434
REMARK  183  A    between atoms: _434  and  _435
REMARK  184  A    between atoms: _435  and  _436
REMARK  185  A    between atoms: _441  and  _443
REMARK  186  A    between atoms: _443  and  _444
REMARK  187  A    between atoms: _443  and  _446
REMARK  188  A    between atoms: _446  and  _447
REMARK  189  A    between atoms: _449  and  _451
REMARK  190  A    between atoms: _451  and  _452
REMARK  191  A    between atoms: _451  and  _454
REMARK  192  A    between atoms: _454  and  _455
REMARK  193  A    between atoms: _460  and  _462
REMARK  194  A    between atoms: _462  and  _463
REMARK  195  A    between atoms: _462  and  _465
REMARK  196  A    between atoms: _465  and  _466
REMARK  197  A    between atoms: _468  and  _470
REMARK  198  A    between atoms: _470  and  _471
REMARK  199  A    between atoms: _473  and  _475
REMARK  200  A    between atoms: _475  and  _476
REMARK  201  A    between atoms: _475  and  _478
REMARK  202  A    between atoms: _478  and  _479
REMARK  203  A    between atoms: _482  and  _484
REMARK  204  A    between atoms: _484  and  _485
REMARK  205  A    between atoms: _484  and  _487
REMARK  206  A    between atoms: _487  and  _488
REMARK  207  A    between atoms: _494  and  _496
REMARK  208  A    between atoms: _496  and  _497
REMARK  209  A    between atoms: _496  and  _499
REMARK  210  A    between atoms: _499  and  _500
REMARK  211  A    between atoms: _502  and  _504
REMARK  212  A    between atoms: _504  and  _505
REMARK  213  A    between atoms: _504  and  _507
REMARK  214  A    between atoms: _507  and  _508
REMARK  215  A    between atoms: _511  and  _513
REMARK  216  A    between atoms: _513  and  _514
REMARK  217  A    between atoms: _516  and  _518
REMARK  218  A    between atoms: _518  and  _519
REMARK  219  A    between atoms: _518  and  _521
REMARK  220  A    between atoms: _521  and  _522
REMARK  221  A    between atoms: _525  and  _527
REMARK  222  A    between atoms: _527  and  _528
REMARK  223  A    between atoms: _527  and  _530
REMARK  224  A    between atoms: _530  and  _531
REMARK  225  A    between atoms: _533  and  _535
REMARK  226  A    between atoms: _535  and  _536
REMARK  227  A    between atoms: _538  and  _540
REMARK  228  A    between atoms: _540  and  _541
REMARK  229  A    between atoms: _540  and  _543
REMARK  230  A    between atoms: _543  and  _544
REMARK  231  A    between atoms: _549  and  _550
REMARK  232  A    between atoms: _552  and  _554
REMARK  233  A    between atoms: _554  and  _555
REMARK  234  A    between atoms: _554  and  _557
REMARK  235  A    between atoms: _557  and  _558
REMARK  236  A    between atoms: _561  and  _563
REMARK  237  A    between atoms: _563  and  _564
REMARK  238  A    between atoms: _563  and  _566
REMARK  239  A    between atoms: _566  and  _567
REMARK  240  A    between atoms: _567  and  _568
REMARK  241  A    between atoms: _574  and  _575
REMARK  242  A    between atoms: _580  and  _582
REMARK  243  A    between atoms: _582  and  _583
REMARK  244  A    between atoms: _582  and  _585
REMARK  245  A    between atoms: _585  and  _586
REMARK  246  A    between atoms: _586  and  _587
REMARK                            x       y       z     vdW  Elec       q    Type
REMARK                         _______ _______ _______ _____ _____    ______ ____
ROOT
ATOM      1  CA  ILE A   1      18.560  20.681  22.627  0.00  0.00    +0.133 C 
ENDROOT
BRANCH   1   2
ATOM      2  N   ILE A   1      17.413  20.606  23.514  0.00  0.00    -0.239 NA
ATOM      3  H   ILE A   1      17.010  19.676  23.747  0.00  0.00    +0.142 HD
ENDBRANCH   1   2
BRANCH   1   4
ATOM      4  CB  ILE A   1      19.750  19.912  23.187  0.00  0.00    +0.023 C 
ATOM      5  CG2 ILE A   1      20.003  20.314  24.616  0.00  0.00    +0.002 C 
BRANCH   4   6
ATOM      6  CG1 ILE A   1      19.485  18.403  23.160  0.00  0.00    +0.002 C 
ATOM      7  CD1 ILE A   1      20.780  17.584  23.487  0.00  0.00    +0.000 C 
ENDBRANCH   4   6
ENDBRANCH   1   4
BRANCH   1   8
ATOM      8  C   ILE A   1      18.244  20.203  21.210  0.00  0.00    +0.224 C 
ATOM      9  O   ILE A   1      17.449  19.267  21.033  0.00  0.00    -0.287 OA
ENDBRANCH   1   8
TORSDOF 4
REMARK  Name = ../refined-set-2016/2wec/2wec_pocket.pdb
REMARK  246 active torsions:
REMARK  status: ('A' for Active; 'I' for Inactive)
REMARK    1  A    between atoms: _1  and  _3
REMARK    2  A    between atoms: _3  and  _4
REMARK    3  A    between atoms: _3  and  _6
REMARK    4  A    between atoms: _6  and  _7
REMARK    5  A    between atoms: _10  and  _12
REMARK    6  A    between atoms: _12  and  _13
REMARK    7  A    between atoms: _12  and  _15
REMARK    8  A    between atoms: _15  and  _16
REMARK    9  A    between atoms: _19  and  _21
REMARK   10  A    between atoms: _21  and  _22
REMARK   11  A    between atoms: _21  and  _24
REMARK   12  A    between atoms: _24  and  _25
REMARK   13  A    between atoms: _25  and  _26
REMARK   14  A    between atoms: _29  and  _31
REMARK   15  A    between atoms: _31  and  _32
REMARK   16  A    between atoms: _31  and  _34
REMARK   17  A    between atoms: _34  and  _35
REMARK   18  A    between atoms: _35  and  _36
REMARK   19  A    between atoms: _39  and  _41
REMARK   20  A    between atoms: _41  and  _42
REMARK   21  A    between atoms: _41  and  _44
REMARK   22  A    between atoms: _44  and  _45
REMARK   23  A    between atoms: _50  and  _51
REMARK   24  A    between atoms: _53  and  _55
REMARK   25  A    between atoms: _55  and  _56
REMARK   26  A    between atoms: _55  and  _58
REMARK   27  A    between atoms: _58  and  _59
REMARK   28  A    between atoms: _64  and  _66
REMARK   29  A    between atoms: _66  and  _67
REMARK   30  A    between atoms: _66  and  _69
REMARK   31  A    between atoms: _69  and  _70
REMARK   32  A    between atoms: _73  and  _75
REMARK   33  A    between atoms: _75  and  _76
REMARK   34  A    between atoms: _75  and  _78
REMARK   35  A    between atoms: _78  and  _79
REMARK   36  A    between atoms: _82  and  _84
REMARK   37  A    between atoms: _84  and  _85
REMARK   38  A    between atoms: _87  and  _89
REMARK   39  A    between atoms: _89  and  _90
REMARK   40  A    between atoms: _89  and  _92
REMARK   41  A    between atoms: _92  and  _93
REMARK   42  A    between atoms: _95  and  _97
REMARK   43  A    between atoms: _97  and  _98
REMARK   44  A    between atoms: _97  and  _100
REMARK   45  A    between atoms: _100  and  _101
REMARK   46  A    between atoms: _104  and  _106
REMARK   47  A    between atoms: _106  and  _107
REMARK   48  A    between atoms: _106  and  _109
REMARK   49  A    between atoms: _109  and  _110
REMARK   50  A    between atoms: _112  and  _114
REMARK   51  A    between atoms: _114  and  _115
REMARK   52  A    between atoms: _114  and  _117
REMARK   53  A    between atoms: _117  and  _118
REMARK   54  A    between atoms: _123  and  _124
REMARK   55  A    between atoms: _126  and  _128
REMARK   56  A    between atoms: _128  and  _129
REMARK   57  A    between atoms: _131  and  _133
REMARK   58  A    between atoms: _133  and  _134
REMARK   59  A    between atoms: _133  and  _136
REMARK   60  A    between atoms: _136  and  _137
REMARK   61  A    between atoms: _140  and  _142
REMARK   62  A    between atoms: _142  and  _143
REMARK   63  A    between atoms: _145  and  _147
REMARK   64  A    between atoms: _147  and  _148
REMARK   65  A    between atoms: _147  and  _150
REMARK   66  A    between atoms: _150  and  _151
REMARK   67  A    between atoms: _153  and  _155
REMARK   68  A    between atoms: _155  and  _156
REMARK   69  A    between atoms: _155  and  _158
REMARK   70  A    between atoms: _158  and  _159
REMARK   71  A    between atoms: _159  and  _160
REMARK   72  A    between atoms: _165  and  _167
REMARK   73  A    between atoms: _167  and  _168
REMARK   74  A    between atoms: _167  and  _170
REMARK   75  A    between atoms: _170  and  _171
REMARK   76  A    between atoms: _177  and  _179
REMARK   77  A    between atoms: _179  and  _180
REMARK   78  A    between atoms: _179  and  _182
REMARK   79  A    between atoms: _182  and  _183
REMARK   80  A    between atoms: _186  and  _188
REMARK   81  A    between atoms: _188  and  _189
REMARK   82  A    between atoms: _188  and  _191
REMARK   83  A    between atoms: _191  and  _192
REMARK   84  A    between atoms: _197  and  _199
REMARK   85  A    between atoms: _199  and  _200
REMARK   86  A    between atoms: _199  and  _202
REMARK   87  A    between atoms: _202  and  _203
REMARK   88  A    between atoms: _208  and  _210
REMARK   89  A    between atoms: _210  and  _211
REMARK   90  A    between atoms: _210  and  _213
REMARK   91  A    between atoms: _213  and  _214
REMARK   92  A    between atoms: _217  and  _219
REMARK   93  A    between atoms: _219  and  _220
REMARK   94  A    between atoms: _223  and  _225
REMARK   95  A    between atoms: _225  and  _226
REMARK   96  A    between atoms: _225  and  _228
REMARK   97  A    between atoms: _228  and  _229
REMARK   98  A    between atoms: _232  and  _234
REMARK   99  A    between atoms: _234  and  _235
REMARK  100  A    between atoms: _234  and  _237
REMARK  101  A    between atoms: _237  and  _238
REMARK  102  A    between atoms: _244  and  _246
REMARK  103  A    between atoms: _246  and  _247
REMARK  104  A    between atoms: _246  and  _249
REMARK  105  A    between atoms: _249  and  _250
REMARK  106  A    between atoms: _253  and  _255
REMARK  107  A    between atoms: _255  and  _256
REMARK  108  A    between atoms: _255  and  _258
REMARK  109  A    between atoms: _258  and  _259
REMARK  110  A    between atoms: _262  and  _264
REMARK  111  A    between atoms: _264  and  _265
REMARK  112  A    between atoms: _264  and  _267
REMARK  113  A    between atoms: _267  and  _268
REMARK  114  A    between atoms: _271  and  _273
REMARK  115  A    between atoms: _273  and  _274
REMARK  116  A    between atoms: _276  and  _278
REMARK  117  A    between atoms: _278  and  _279
REMARK  118  A    between atoms: _278  and  _281
REMARK  119  A    between atoms: _281  and  _282
REMARK  120  A    between atoms: _285  and  _287
REMARK  121  A    between atoms: _287  and  _288
REMARK  122  A    between atoms: _287  and  _290
REMARK  123  A    between atoms: _290  and  _291
REMARK  124  A    between atoms: _294  and  _296
REMARK  125  A    between atoms: _296  and  _297
REMARK  126  A    between atoms: _296  and  _299
REMARK  127  A    between atoms: _299  and  _300
REMARK  128  A    between atoms: _303  and  _305
REMARK  129  A    between atoms: _305  and  _306
REMARK  130  A    between atoms: _305  and  _308
REMARK  131  A    between atoms: _308  and  _309
REMARK  132  A    between atoms: _312  and  _314
REMARK  133  A    between atoms: _314  and  _315
REMARK  134  A    between atoms: _314  and  _317
REMARK  135  A    between atoms: _317  and  _318
REMARK  136  A    between atoms: _321  and  _323
REMARK  137  A    between atoms: _323  and  _324
REMARK  138  A    between atoms: _323  and  _326
REMARK  139  A    between atoms: _326  and  _327
REMARK  140  A    between atoms: _330  and  _332
REMARK  141  A    between atoms: _332  and  _333
REMARK  142  A    between atoms: _332  and  _335
REMARK  143  A    between atoms: _335  and  _336
REMARK  144  A    between atoms: _338  and  _340
REMARK  145  A    between atoms: _340  and  _341
REMARK  146  A    between atoms: _340  and  _343
REMARK  147  A    between atoms: _343  and  _344
REMARK  148  A    between atoms: _349  and  _351
REMARK  149  A    between atoms: _351  and  _352
REMARK  150  A    between atoms: _355  and  _357
REMARK  151  A    between atoms: _357  and  _358
REMARK  152  A    between atoms: _360  and  _362
REMARK  153  A    between atoms: _362  and  _363
REMARK  154  A    between atoms: _365  and  _367
REMARK  155  A    between atoms: _367  and  _368
REMARK  156  A    between atoms: _367  and  _370
REMARK  157  A    between atoms: _370  and  _371
REMARK  158  A    between atoms: _376  and  _377
REMARK  159  A    between atoms: _379  and  _381
REMARK  160  A    between atoms: _381  and  _382
REMARK  161  A    between atoms: _381  and  _384
REMARK  162  A    between atoms: _384  and  _385
REMARK  163  A    between atoms: _390  and  _391
REMARK  164  A    between atoms: _393  and  _395
REMARK  165  A    between atoms: _395  and  _396
REMARK  166  A    between atoms: _395  and  _398
REMARK  167  A    between atoms: _398  and  _399
REMARK  168  A    between atoms: _401  and  _403
REMARK  169  A    between atoms: _403  and  _404
REMARK  170  A    between atoms: _403  and  _406
REMARK  171  A    between atoms: _406  and  _407
REMARK  172  A    between atoms: _410  and  _412
REMARK  173  A    between atoms: _412  and  _413
REMARK  174  A    between atoms: _415  and  _417
REMARK  175  A    between atoms: _417  and  _418
REMARK  176  A    between atoms: _420  and  _422
REMARK  177  A    between atoms: _422  and  _423
REMARK  178  A    between atoms: _422  and  _425
REMARK  179  A    between atoms: _425  and  _426
REMARK  180  A    between atoms: _429  and  _431
REMARK  181  A    between atoms: _431  and  _432
REMARK  182  A    between atoms: _431  and  _434
REMARK  183  A    between atoms: _434  and  _435
REMARK  184  A    between atoms: _435  and  _436
REMARK  185  A    between atoms: _441  and  _443
REMARK  186  A    between atoms: _443  and  _444
REMARK  187  A    between atoms: _443  and  _446
REMARK  188  A    between atoms: _446  and  _447
REMARK  189  A    between atoms: _449  and  _451
REMARK  190  A    between atoms: _451  and  _452
REMARK  191  A    between atoms: _451  and  _454
REMARK  192  A    between atoms: _454  and  _455
REMARK  193  A    between atoms: _460  and  _462
REMARK  194  A    between atoms: _462  and  _463
REMARK  195  A    between atoms: _462  and  _465
REMARK  196  A    between atoms: _465  and  _466
REMARK  197  A    between atoms: _468  and  _470
REMARK  198  A    between atoms: _470  and  _471
REMARK  199  A    between atoms: _473  and  _475
REMARK  200  A    between atoms: _475  and  _476
REMARK  201  A    between atoms: _475  and  _478
REMARK  202  A    between atoms: _478  and  _479
REMARK  203  A    between atoms: _482  and  _484
REMARK  204  A    between atoms: _484  and  _485
REMARK  205  A    between atoms: _484  and  _487
REMARK  206  A    between atoms: _487  and  _488
REMARK  207  A    between atoms: _494  and  _496
REMARK  208  A    between atoms: _496  and  _497
REMARK  209  A    between atoms: _496  and  _499
REMARK  210  A    between atoms: _499  and  _500
REMARK  211  A    between atoms: _502  and  _504
REMARK  212  A    between atoms: _504  and  _505
REMARK  213  A    between atoms: _504  and  _507
REMARK  214  A    between atoms: _507  and  _508
REMARK  215  A    between atoms: _511  and  _513
REMARK  216  A    between atoms: _513  and  _514
REMARK  217  A    between atoms: _516  and  _518
REMARK  218  A    between atoms: _518  and  _519
REMARK  219  A    between atoms: _518  and  _521
REMARK  220  A    between atoms: _521  and  _522
REMARK  221  A    between atoms: _525  and  _527
REMARK  222  A    between atoms: _527  and  _528
REMARK  223  A    between atoms: _527  and  _530
REMARK  224  A    between atoms: _530  and  _531
REMARK  225  A    between atoms: _533  and  _535
REMARK  226  A    between atoms: _535  and  _536
REMARK  227  A    between atoms: _538  and  _540
REMARK  228  A    between atoms: _540  and  _541
REMARK  229  A    between atoms: _540  and  _543
REMARK  230  A    between atoms: _543  and  _544
REMARK  231  A    between atoms: _549  and  _550
REMARK  232  A    between atoms: _552  and  _554
REMARK  233  A    between atoms: _554  and  _555
REMARK  234  A    between atoms: _554  and  _557
REMARK  235  A    between atoms: _557  and  _558
REMARK  236  A    between atoms: _561  and  _563
REMARK  237  A    between atoms: _563  and  _564
REMARK  238  A    between atoms: _563  and  _566
REMARK  239  A    between atoms: _566  and  _567
REMARK  240  A    between atoms: _567  and  _568
REMARK  241  A    between atoms: _574  and  _575
REMARK  242  A    between atoms: _580  and  _582
REMARK  243  A    between atoms: _582  and  _583
REMARK  244  A    between atoms: _582  and  _585
REMARK  245  A    between atoms: _585  and  _586
REMARK  246  A    between atoms: _586  and  _587
REMARK                            x       y       z     vdW  Elec       q    Type
REMARK                         _______ _______ _______ _____ _____    ______ ____
ROOT
ATOM      1  C   THR A   4      17.520  11.113  17.367  0.00  0.00    +0.243 C 
ATOM      2  N   THR A   5      17.036   9.889  17.264  0.00  0.00    -0.295 N 
ATOM      3  H   THR A   5      17.398   9.132  17.878  0.00  0.00    +0.150 HD
ATOM      4  O   THR A   4      17.099  12.043  16.678  0.00  0.00    -0.273 OA
ENDROOT
BRANCH   2   5
ATOM      5  CA  THR A   5      15.987   9.601  16.281  0.00  0.00    +0.176 C 
BRANCH   5   6
ATOM      6  C   THR A   5      14.660  10.304  16.532  0.00  0.00    +0.243 C 
ATOM      7  N   LEU A   6      14.271  10.302  17.792  0.00  0.00    -0.297 N 
ATOM      8  H   LEU A   6      14.921   9.955  18.527  0.00  0.00    +0.150 HD
ATOM      9  O   THR A   5      13.985  10.765  15.598  0.00  0.00    -0.273 OA
BRANCH   7  10
ATOM     10  CA  LEU A   6      12.949  10.776  18.173  0.00  0.00    +0.149 C 
BRANCH  10  11
ATOM     11  C   LEU A   6      12.910  12.123  18.874  0.00  0.00    +0.241 C 
ATOM     12  N   LEU A   7      11.685  12.577  19.158  0.00  0.00    -0.297 N 
ATOM     13  H   LEU A   7      10.873  12.009  18.843  0.00  0.00    +0.150 HD
ATOM     14  O   LEU A   6      13.947  12.746  19.090  0.00  0.00    -0.273 OA
BRANCH  12  15
ATOM     15  CA  LEU A   7      11.408  13.820  19.883  0.00  0.00    +0.149 C 
BRANCH  15  16
ATOM     16  C   LEU A   7      11.122  13.356  21.305  0.00  0.00    +0.241 C 
ATOM     17  N   LEU A   8      12.060  13.604  22.209  0.00  0.00    -0.298 N 
ATOM     18  H   LEU A   8      12.908  14.135  21.925  0.00  0.00    +0.150 HD
ATOM     19  O   LEU A   7      10.094  12.707  21.556  0.00  0.00    -0.273 OA
BRANCH  17  20
ATOM     20  CA  LEU A   8      11.935  13.151  23.599  0.00  0.00    +0.137 C 
BRANCH  20  21
ATOM     21  C   LEU A   8      11.512  14.318  24.492  0.00  0.00    +0.227 C 
ATOM     22  O   LEU A   8      12.252  15.298  24.637  0.00  0.00    -0.286 OA
ENDBRANCH  20  21
BRANCH  20  23
ATOM     23  CB  LEU A   8      13.246  12.515  24.071  0.00  0.00    +0.028 C 
BRANCH  23  24
ATOM     24  CG  LEU A   8      13.849  11.415  23.163  0.00  0.00    +0.002 C 
ATOM     25  CD2 LEU A   8      15.172  10.823  23.757  0.00  0.00    +0.000 C 
ATOM     26  CD1 LEU A   8      12.804  10.292  22.955  0.00  0.00    +0.000 C 
ENDBRANCH  23  24
ENDBRANCH  20  23
ENDBRANCH  17  20
ENDBRANCH  15  16
BRANCH  15  27
ATOM     27  CB  LEU A   7      10.179  14.508  19.274  0.00  0.00    +0.029 C 
BRANCH  27  28
ATOM     28  CG  LEU A   7       9.676  15.822  19.889  0.00  0.00    +0.002 C 
ATOM     29  CD2 LEU A   7      10.801  16.832  20.112  0.00  0.00    +0.000 C 
ATOM     30  CD1 LEU A   7       8.582  16.432  18.960  0.00  0.00    +0.000 C 
ENDBRANCH  27  28
ENDBRANCH  15  27
ENDBRANCH  12  15
ENDBRANCH  10  11
BRANCH  10  31
ATOM     31  CB  LEU A   6      12.285   9.703  19.039  0.00  0.00    +0.029 C 
BRANCH  31  32
ATOM     32  CG  LEU A   6      12.256   8.320  18.392  0.00  0.00    +0.002 C 
ATOM     33  CD2 LEU A   6      11.629   7.325  19.366  0.00  0.00    +0.000 C 
ATOM     34  CD1 LEU A   6      11.495   8.329  17.064  0.00  0.00    +0.000 C 
ENDBRANCH  31  32
ENDBRANCH  10  31
ENDBRANCH   7  10
ENDBRANCH   5   6
BRANCH   5  35
ATOM     35  CB  THR A   5      15.687   8.099  16.316  0.00  0.00    +0.137 C 
ATOM     36  CG2 THR A   5      14.724   7.729  15.216  0.00  0.00    +0.034 C 
BRANCH  35  37
ATOM     37  OG1 THR A   5      16.926   7.381  16.157  0.00  0.00    -0.382 OA
ATOM     38  HG1 THR A   5      17.338   7.624  15.290  0.00  0.00    +0.210 HD
ENDBRANCH  35  37
ENDBRANCH   5  35
ENDBRANCH   2   5
BRANCH   1  39
ATOM     39  CA  THR A   4      18.659  11.319  18.359  0.00  0.00    +0.176 C 
BRANCH  39  41
ATOM     40  C   GLY A   3      20.867  11.450  17.339  0.00  0.00    +0.243 C 
ATOM     41  N   THR A   4      19.723  12.053  17.670  0.00  0.00    -0.295 N 
ATOM     42  H   THR A   4      19.585  13.057  17.436  0.00  0.00    +0.150 HD
ATOM     43  O   GLY A   3      21.107  10.295  17.639  0.00  0.00    -0.273 OA
BRANCH  40  44
ATOM     44  CA  GLY A   3      21.943  12.267  16.636  0.00  0.00    +0.176 C 
BRANCH  44  46
ATOM     45  C   THR A   2      20.861  13.912  15.182  0.00  0.00    +0.243 C 
ATOM     46  N   GLY A   3      21.576  13.632  16.261  0.00  0.00    -0.295 N 
ATOM     47  H   GLY A   3      21.890  14.416  16.868  0.00  0.00    +0.150 HD
ATOM     48  O   THR A   2      20.434  13.056  14.413  0.00  0.00    -0.273 OA
BRANCH  45  49
ATOM     49  CA  THR A   2      20.593  15.393  14.907  0.00  0.00    +0.176 C 
BRANCH  49  52
ATOM     50  C   ASP A   1      19.840  16.042  17.133  0.00  0.00    +0.239 C 
ATOM     51  O   ASP A   1      18.951  15.174  17.163  0.00  0.00    -0.274 OA
ATOM     52  N   THR A   2      20.683  16.197  16.108  0.00  0.00    -0.295 N 
ATOM     53  H   THR A   2      21.429  16.919  16.175  0.00  0.00    +0.150 HD
BRANCH  50  54
ATOM     54  CA  ASP A   1      20.089  16.962  18.349  0.00  0.00    +0.156 C 
BRANCH  54  55
ATOM     55  N   ASP A   1      19.201  18.121  18.409  0.00  0.00    -0.238 NA
ATOM     56  H   ASP A   1      18.177  17.997  18.276  0.00  0.00    +0.142 HD
ENDBRANCH  54  55
BRANCH  54  57
ATOM     57  CB  ASP A   1      19.923  16.174  19.658  0.00  0.00    +0.140 C 
BRANCH  57  58
ATOM     58  CG  ASP A   1      20.960  15.047  19.814  0.00  0.00    +0.367 C 
ATOM     59  OD2 ASP A   1      20.996  14.429  20.880  0.00  0.00    -0.246 OA
ATOM     60  OD1 ASP A   1      21.719  14.785  18.874  0.00  0.00    -0.246 OA
ENDBRANCH  57  58
ENDBRANCH  54  57
ENDBRANCH  50  54
ENDBRANCH  49  52
BRANCH  49  61
ATOM     61  CB  THR A   2      21.629  15.826  13.837  0.00  0.00    +0.137 C 
ATOM     62  CG2 THR A   2      21.385  17.264  13.370  0.00  0.00    +0.034 C 
BRANCH  61  63
ATOM     63  OG1 THR A   2      22.938  15.761  14.420  0.00  0.00    -0.382 OA
ATOM     64  HG1 THR A   2      23.122  14.834  14.714  0.00  0.00    +0.210 HD
ENDBRANCH  61  63
ENDBRANCH  49  61
ENDBRANCH  45  49
ENDBRANCH  44  46
ENDBRANCH  40  44
ENDBRANCH  39  41
BRANCH  39  65
ATOM     65  CB  THR A   4      18.178  12.064  19.654  0.00  0.00    +0.137 C 
ATOM     66  CG2 THR A   4      16.976  11.397  20.259  0.00  0.00    +0.034 C 
BRANCH  65  67
ATOM     67  OG1 THR A   4      19.242  12.044  20.620  0.00  0.00    -0.382 OA
ATOM     68  HG1 THR A   4      20.036  12.501  20.244  0.00  0.00    +0.210 HD
ENDBRANCH  65  67
ENDBRANCH  39  65
ENDBRANCH   1  39
TORSDOF 30
REMARK  Name = ../refined-set-2016/2wec/2wec_pocket.pdb
REMARK  246 active torsions:
REMARK  status: ('A' for Active; 'I' for Inactive)
REMARK    1  A    between atoms: _1  and  _3
REMARK    2  A    between atoms: _3  and  _4
REMARK    3  A    between atoms: _3  and  _6
REMARK    4  A    between atoms: _6  and  _7
REMARK    5  A    between atoms: _10  and  _12
REMARK    6  A    between atoms: _12  and  _13
REMARK    7  A    between atoms: _12  and  _15
REMARK    8  A    between atoms: _15  and  _16
REMARK    9  A    between atoms: _19  and  _21
REMARK   10  A    between atoms: _21  and  _22
REMARK   11  A    between atoms: _21  and  _24
REMARK   12  A    between atoms: _24  and  _25
REMARK   13  A    between atoms: _25  and  _26
REMARK   14  A    between atoms: _29  and  _31
REMARK   15  A    between atoms: _31  and  _32
REMARK   16  A    between atoms: _31  and  _34
REMARK   17  A    between atoms: _34  and  _35
REMARK   18  A    between atoms: _35  and  _36
REMARK   19  A    between atoms: _39  and  _41
REMARK   20  A    between atoms: _41  and  _42
REMARK   21  A    between atoms: _41  and  _44
REMARK   22  A    between atoms: _44  and  _45
REMARK   23  A    between atoms: _50  and  _51
REMARK   24  A    between atoms: _53  and  _55
REMARK   25  A    between atoms: _55  and  _56
REMARK   26  A    between atoms: _55  and  _58
REMARK   27  A    between atoms: _58  and  _59
REMARK   28  A    between atoms: _64  and  _66
REMARK   29  A    between atoms: _66  and  _67
REMARK   30  A    between atoms: _66  and  _69
REMARK   31  A    between atoms: _69  and  _70
REMARK   32  A    between atoms: _73  and  _75
REMARK   33  A    between atoms: _75  and  _76
REMARK   34  A    between atoms: _75  and  _78
REMARK   35  A    between atoms: _78  and  _79
REMARK   36  A    between atoms: _82  and  _84
REMARK   37  A    between atoms: _84  and  _85
REMARK   38  A    between atoms: _87  and  _89
REMARK   39  A    between atoms: _89  and  _90
REMARK   40  A    between atoms: _89  and  _92
REMARK   41  A    between atoms: _92  and  _93
REMARK   42  A    between atoms: _95  and  _97
REMARK   43  A    between atoms: _97  and  _98
REMARK   44  A    between atoms: _97  and  _100
REMARK   45  A    between atoms: _100  and  _101
REMARK   46  A    between atoms: _104  and  _106
REMARK   47  A    between atoms: _106  and  _107
REMARK   48  A    between atoms: _106  and  _109
REMARK   49  A    between atoms: _109  and  _110
REMARK   50  A    between atoms: _112  and  _114
REMARK   51  A    between atoms: _114  and  _115
REMARK   52  A    between atoms: _114  and  _117
REMARK   53  A    between atoms: _117  and  _118
REMARK   54  A    between atoms: _123  and  _124
REMARK   55  A    between atoms: _126  and  _128
REMARK   56  A    between atoms: _128  and  _129
REMARK   57  A    between atoms: _131  and  _133
REMARK   58  A    between atoms: _133  and  _134
REMARK   59  A    between atoms: _133  and  _136
REMARK   60  A    between atoms: _136  and  _137
REMARK   61  A    between atoms: _140  and  _142
REMARK   62  A    between atoms: _142  and  _143
REMARK   63  A    between atoms: _145  and  _147
REMARK   64  A    between atoms: _147  and  _148
REMARK   65  A    between atoms: _147  and  _150
REMARK   66  A    between atoms: _150  and  _151
REMARK   67  A    between atoms: _153  and  _155
REMARK   68  A    between atoms: _155  and  _156
REMARK   69  A    between atoms: _155  and  _158
REMARK   70  A    between atoms: _158  and  _159
REMARK   71  A    between atoms: _159  and  _160
REMARK   72  A    between atoms: _165  and  _167
REMARK   73  A    between atoms: _167  and  _168
REMARK   74  A    between atoms: _167  and  _170
REMARK   75  A    between atoms: _170  and  _171
REMARK   76  A    between atoms: _177  and  _179
REMARK   77  A    between atoms: _179  and  _180
REMARK   78  A    between atoms: _179  and  _182
REMARK   79  A    between atoms: _182  and  _183
REMARK   80  A    between atoms: _186  and  _188
REMARK   81  A    between atoms: _188  and  _189
REMARK   82  A    between atoms: _188  and  _191
REMARK   83  A    between atoms: _191  and  _192
REMARK   84  A    between atoms: _197  and  _199
REMARK   85  A    between atoms: _199  and  _200
REMARK   86  A    between atoms: _199  and  _202
REMARK   87  A    between atoms: _202  and  _203
REMARK   88  A    between atoms: _208  and  _210
REMARK   89  A    between atoms: _210  and  _211
REMARK   90  A    between atoms: _210  and  _213
REMARK   91  A    between atoms: _213  and  _214
REMARK   92  A    between atoms: _217  and  _219
REMARK   93  A    between atoms: _219  and  _220
REMARK   94  A    between atoms: _223  and  _225
REMARK   95  A    between atoms: _225  and  _226
REMARK   96  A    between atoms: _225  and  _228
REMARK   97  A    between atoms: _228  and  _229
REMARK   98  A    between atoms: _232  and  _234
REMARK   99  A    between atoms: _234  and  _235
REMARK  100  A    between atoms: _234  and  _237
REMARK  101  A    between atoms: _237  and  _238
REMARK  102  A    between atoms: _244  and  _246
REMARK  103  A    between atoms: _246  and  _247
REMARK  104  A    between atoms: _246  and  _249
REMARK  105  A    between atoms: _249  and  _250
REMARK  106  A    between atoms: _253  and  _255
REMARK  107  A    between atoms: _255  and  _256
REMARK  108  A    between atoms: _255  and  _258
REMARK  109  A    between atoms: _258  and  _259
REMARK  110  A    between atoms: _262  and  _264
REMARK  111  A    between atoms: _264  and  _265
REMARK  112  A    between atoms: _264  and  _267
REMARK  113  A    between atoms: _267  and  _268
REMARK  114  A    between atoms: _271  and  _273
REMARK  115  A    between atoms: _273  and  _274
REMARK  116  A    between atoms: _276  and  _278
REMARK  117  A    between atoms: _278  and  _279
REMARK  118  A    between atoms: _278  and  _281
REMARK  119  A    between atoms: _281  and  _282
REMARK  120  A    between atoms: _285  and  _287
REMARK  121  A    between atoms: _287  and  _288
REMARK  122  A    between atoms: _287  and  _290
REMARK  123  A    between atoms: _290  and  _291
REMARK  124  A    between atoms: _294  and  _296
REMARK  125  A    between atoms: _296  and  _297
REMARK  126  A    between atoms: _296  and  _299
REMARK  127  A    between atoms: _299  and  _300
REMARK  128  A    between atoms: _303  and  _305
REMARK  129  A    between atoms: _305  and  _306
REMARK  130  A    between atoms: _305  and  _308
REMARK  131  A    between atoms: _308  and  _309
REMARK  132  A    between atoms: _312  and  _314
REMARK  133  A    between atoms: _314  and  _315
REMARK  134  A    between atoms: _314  and  _317
REMARK  135  A    between atoms: _317  and  _318
REMARK  136  A    between atoms: _321  and  _323
REMARK  137  A    between atoms: _323  and  _324
REMARK  138  A    between atoms: _323  and  _326
REMARK  139  A    between atoms: _326  and  _327
REMARK  140  A    between atoms: _330  and  _332
REMARK  141  A    between atoms: _332  and  _333
REMARK  142  A    between atoms: _332  and  _335
REMARK  143  A    between atoms: _335  and  _336
REMARK  144  A    between atoms: _338  and  _340
REMARK  145  A    between atoms: _340  and  _341
REMARK  146  A    between atoms: _340  and  _343
REMARK  147  A    between atoms: _343  and  _344
REMARK  148  A    between atoms: _349  and  _351
REMARK  149  A    between atoms: _351  and  _352
REMARK  150  A    between atoms: _355  and  _357
REMARK  151  A    between atoms: _357  and  _358
REMARK  152  A    between atoms: _360  and  _362
REMARK  153  A    between atoms: _362  and  _363
REMARK  154  A    between atoms: _365  and  _367
REMARK  155  A    between atoms: _367  and  _368
REMARK  156  A    between atoms: _367  and  _370
REMARK  157  A    between atoms: _370  and  _371
REMARK  158  A    between atoms: _376  and  _377
REMARK  159  A    between atoms: _379  and  _381
REMARK  160  A    between atoms: _381  and  _382
REMARK  161  A    between atoms: _381  and  _384
REMARK  162  A    between atoms: _384  and  _385
REMARK  163  A    between atoms: _390  and  _391
REMARK  164  A    between atoms: _393  and  _395
REMARK  165  A    between atoms: _395  and  _396
REMARK  166  A    between atoms: _395  and  _398
REMARK  167  A    between atoms: _398  and  _399
REMARK  168  A    between atoms: _401  and  _403
REMARK  169  A    between atoms: _403  and  _404
REMARK  170  A    between atoms: _403  and  _406
REMARK  171  A    between atoms: _406  and  _407
REMARK  172  A    between atoms: _410  and  _412
REMARK  173  A    between atoms: _412  and  _413
REMARK  174  A    between atoms: _415  and  _417
REMARK  175  A    between atoms: _417  and  _418
REMARK  176  A    between atoms: _420  and  _422
REMARK  177  A    between atoms: _422  and  _423
REMARK  178  A    between atoms: _422  and  _425
REMARK  179  A    between atoms: _425  and  _426
REMARK  180  A    between atoms: _429  and  _431
REMARK  181  A    between atoms: _431  and  _432
REMARK  182  A    between atoms: _431  and  _434
REMARK  183  A    between atoms: _434  and  _435
REMARK  184  A    between atoms: _435  and  _436
REMARK  185  A    between atoms: _441  and  _443
REMARK  186  A    between atoms: _443  and  _444
REMARK  187  A    between atoms: _443  and  _446
REMARK  188  A    between atoms: _446  and  _447
REMARK  189  A    between atoms: _449  and  _451
REMARK  190  A    between atoms: _451  and  _452
REMARK  191  A    between atoms: _451  and  _454
REMARK  192  A    between atoms: _454  and  _455
REMARK  193  A    between atoms: _460  and  _462
REMARK  194  A    between atoms: _462  and  _463
REMARK  195  A    between atoms: _462  and  _465
REMARK  196  A    between atoms: _465  and  _466
REMARK  197  A    between atoms: _468  and  _470
REMARK  198  A    between atoms: _470  and  _471
REMARK  199  A    between atoms: _473  and  _475
REMARK  200  A    between atoms: _475  and  _476
REMARK  201  A    between atoms: _475  and  _478
REMARK  202  A    between atoms: _478  and  _479
REMARK  203  A    between atoms: _482  and  _484
REMARK  204  A    between atoms: _484  and  _485
REMARK  205  A    between atoms: _484  and  _487
REMARK  206  A    between atoms: _487  and  _488
REMARK  207  A    between atoms: _494  and  _496
REMARK  208  A    between atoms: _496  and  _497
REMARK  209  A    between atoms: _496  and  _499
REMARK  210  A    between atoms: _499  and  _500
REMARK  211  A    between atoms: _502  and  _504
REMARK  212  A    between atoms: _504  and  _505
REMARK  213  A    between atoms: _504  and  _507
REMARK  214  A    between atoms: _507  and  _508
REMARK  215  A    between atoms: _511  and  _513
REMARK  216  A    between atoms: _513  and  _514
REMARK  217  A    between atoms: _516  and  _518
REMARK  218  A    between atoms: _518  and  _519
REMARK  219  A    between atoms: _518  and  _521
REMARK  220  A    between atoms: _521  and  _522
REMARK  221  A    between atoms: _525  and  _527
REMARK  222  A    between atoms: _527  and  _528
REMARK  223  A    between atoms: _527  and  _530
REMARK  224  A    between atoms: _530  and  _531
REMARK  225  A    between atoms: _533  and  _535
REMARK  226  A    between atoms: _535  and  _536
REMARK  227  A    between atoms: _538  and  _540
REMARK  228  A    between atoms: _540  and  _541
REMARK  229  A    between atoms: _540  and  _543
REMARK  230  A    between atoms: _543  and  _544
REMARK  231  A    between atoms: _549  and  _550
REMARK  232  A    between atoms: _552  and  _554
REMARK  233  A    between atoms: _554  and  _555
REMARK  234  A    between atoms: _554  and  _557
REMARK  235  A    between atoms: _557  and  _558
REMARK  236  A    between atoms: _561  and  _563
REMARK  237  A    between atoms: _563  and  _564
REMARK  238  A    between atoms: _563  and  _566
REMARK  239  A    between atoms: _566  and  _567
REMARK  240  A    between atoms: _567  and  _568
REMARK  241  A    between atoms: _574  and  _575
REMARK  242  A    between atoms: _580  and  _582
REMARK  243  A    between atoms: _582  and  _583
REMARK  244  A    between atoms: _582  and  _585
REMARK  245  A    between atoms: _585  and  _586
REMARK  246  A    between atoms: _586  and  _587
REMARK                            x       y       z     vdW  Elec       q    Type
REMARK                         _______ _______ _______ _____ _____    ______ ____
ROOT
ATOM      1  C   ASN A   3       9.255  -3.758  21.723  0.00  0.00    +0.241 C 
ATOM      2  N   ALA A   4       8.490  -2.673  21.590  0.00  0.00    -0.297 N 
ATOM      3  H   ALA A   4       7.682  -2.550  22.233  0.00  0.00    +0.150 HD
ATOM      4  O   ASN A   3      10.205  -3.983  20.975  0.00  0.00    -0.273 OA
ENDROOT
BRANCH   2   5
ATOM      5  CA  ALA A   4       8.742  -1.646  20.573  0.00  0.00    +0.149 C 
ATOM      6  CB  ALA A   4       7.425  -1.110  20.056  0.00  0.00    +0.031 C 
BRANCH   5   7
ATOM      7  C   ALA A   4       9.615  -0.506  21.092  0.00  0.00    +0.241 C 
ATOM      8  N   GLY A   5       9.551  -0.240  22.388  0.00  0.00    -0.295 N 
ATOM      9  H   GLY A   5       8.924  -0.792  23.007  0.00  0.00    +0.150 HD
ATOM     10  O   ALA A   4      10.363   0.108  20.341  0.00  0.00    -0.273 OA
BRANCH   8  11
ATOM     11  CA  GLY A   5      10.370   0.837  22.940  0.00  0.00    +0.176 C 
BRANCH  11  12
ATOM     12  C   GLY A   5       9.604   2.080  23.394  0.00  0.00    +0.243 C 
ATOM     13  O   GLY A   5      10.200   3.102  23.734  0.00  0.00    -0.273 OA
ATOM     14  N   GLY A   6       8.282   2.005  23.430  0.00  0.00    -0.295 N 
ATOM     15  H   GLY A   6       7.796   1.126  23.162  0.00  0.00    +0.150 HD
BRANCH  14  16
ATOM     16  CA  GLY A   6       7.518   3.175  23.852  0.00  0.00    +0.176 C 
BRANCH  16  17
ATOM     17  C   GLY A   6       6.071   3.058  23.391  0.00  0.00    +0.243 C 
ATOM     18  N   TYR A   7       5.409   4.205  23.267  0.00  0.00    -0.298 N 
ATOM     19  H   TYR A   7       5.894   5.102  23.472  0.00  0.00    +0.150 HD
ATOM     20  O   GLY A   6       5.550   1.954  23.190  0.00  0.00    -0.273 OA
BRANCH  18  21
ATOM     21  CA  TYR A   7       4.012   4.221  22.847  0.00  0.00    +0.141 C 
BRANCH  21  22
ATOM     22  C   TYR A   7       3.869   3.793  21.404  0.00  0.00    +0.227 C 
ATOM     23  O   TYR A   7       4.592   4.283  20.514  0.00  0.00    -0.286 OA
ENDBRANCH  21  22
BRANCH  21  24
ATOM     24  CB  TYR A   7       3.417   5.637  22.977  0.00  0.00    +0.054 C 
BRANCH  24  25
ATOM     25  CG  TYR A   7       3.059   5.998  24.373  0.00  0.00    -0.020 A 
ATOM     26  CD2 TYR A   7       3.979   6.587  25.225  0.00  0.00    -0.001 A 
ATOM     27  CE2 TYR A   7       3.648   6.881  26.545  0.00  0.00    +0.036 A 
ATOM     28  CZ  TYR A   7       2.363   6.587  26.998  0.00  0.00    +0.134 A 
ATOM     29  CE1 TYR A   7       1.428   6.020  26.148  0.00  0.00    +0.036 A 
ATOM     30  CD1 TYR A   7       1.778   5.723  24.854  0.00  0.00    -0.001 A 
BRANCH  28  31
ATOM     31  OH  TYR A   7       1.990   6.881  28.297  0.00  0.00    -0.506 OA
ATOM     32  HH  TYR A   7       2.759   7.278  28.778  0.00  0.00    +0.292 HD
ENDBRANCH  28  31
ENDBRANCH  24  25
ENDBRANCH  21  24
ENDBRANCH  18  21
ENDBRANCH  16  17
ENDBRANCH  14  16
ENDBRANCH  11  12
ENDBRANCH   8  11
ENDBRANCH   5   7
ENDBRANCH   2   5
BRANCH   1  33
ATOM     33  CA  ASN A   3       8.837  -4.769  22.816  0.00  0.00    +0.158 C 
BRANCH  33  36
ATOM     34  C   SER A   2       8.926  -3.190  24.657  0.00  0.00    +0.243 C 
ATOM     35  O   SER A   2      10.117  -3.020  24.508  0.00  0.00    -0.273 OA
ATOM     36  N   ASN A   3       8.221  -4.040  23.915  0.00  0.00    -0.297 N 
ATOM     37  H   ASN A   3       7.213  -4.186  24.124  0.00  0.00    +0.150 HD
BRANCH  34  38
ATOM     38  CA  SER A   2       8.198  -2.394  25.721  0.00  0.00    +0.178 C 
BRANCH  38  40
ATOM     39  C   ASP A   1       6.308  -1.650  24.407  0.00  0.00    +0.239 C 
ATOM     40  N   SER A   2       6.768  -2.297  25.469  0.00  0.00    -0.295 N 
ATOM     41  H   SER A   2       6.099  -2.741  26.130  0.00  0.00    +0.150 HD
ATOM     42  O   ASP A   1       7.035  -1.096  23.577  0.00  0.00    -0.274 OA
BRANCH  39  43
ATOM     43  CA  ASP A   1       4.799  -1.583  24.283  0.00  0.00    +0.156 C 
BRANCH  43  44
ATOM     44  N   ASP A   1       4.444  -0.228  24.649  0.00  0.00    -0.238 NA
ATOM     45  H   ASP A   1       5.030   0.567  24.322  0.00  0.00    +0.142 HD
ENDBRANCH  43  44
BRANCH  43  46
ATOM     46  CB  ASP A   1       4.342  -1.849  22.853  0.00  0.00    +0.140 C 
BRANCH  46  47
ATOM     47  CG  ASP A   1       4.714  -3.268  22.366  0.00  0.00    +0.367 C 
ATOM     48  OD2 ASP A   1       5.505  -3.962  23.057  0.00  0.00    -0.246 OA
ATOM     49  OD1 ASP A   1       4.299  -3.629  21.244  0.00  0.00    -0.246 OA
ENDBRANCH  46  47
ENDBRANCH  43  46
ENDBRANCH  39  43
ENDBRANCH  38  40
BRANCH  38  50
ATOM     50  CB  SER A   2       8.508  -2.906  27.127  0.00  0.00    +0.166 C 
BRANCH  50  51
ATOM     51  OG  SER A   2       7.998  -4.216  27.273  0.00  0.00    -0.380 OA
ATOM     52  H   SER A   2       8.199  -4.547  28.184  0.00  0.00    +0.211 HD
ENDBRANCH  50  51
ENDBRANCH  38  50
ENDBRANCH  34  38
ENDBRANCH  33  36
BRANCH  33  53
ATOM     53  CB  ASN A   3       7.820  -5.739  22.201  0.00  0.00    +0.114 C 
BRANCH  53  54
ATOM     54  CG  ASN A   3       7.478  -6.882  23.114  0.00  0.00    +0.222 C 
ATOM     55  OD1 ASN A   3       8.319  -7.365  23.861  0.00  0.00    -0.275 OA
ATOM     56  ND2 ASN A   3       6.220  -7.282  23.103  0.00  0.00    -0.329 N 
ATOM     57 HD21 ASN A   3       5.909  -8.037  23.747  0.00  0.00    +0.145 HD
ATOM     58 HD22 ASN A   3       5.540  -6.842  22.450  0.00  0.00    +0.145 HD
ENDBRANCH  53  54
ENDBRANCH  33  53
ENDBRANCH   1  33
TORSDOF 23
REMARK  Name = ../refined-set-2016/2wec/2wec_pocket.pdb
REMARK  246 active torsions:
REMARK  status: ('A' for Active; 'I' for Inactive)
REMARK    1  A    between atoms: _1  and  _3
REMARK    2  A    between atoms: _3  and  _4
REMARK    3  A    between atoms: _3  and  _6
REMARK    4  A    between atoms: _6  and  _7
REMARK    5  A    between atoms: _10  and  _12
REMARK    6  A    between atoms: _12  and  _13
REMARK    7  A    between atoms: _12  and  _15
REMARK    8  A    between atoms: _15  and  _16
REMARK    9  A    between atoms: _19  and  _21
REMARK   10  A    between atoms: _21  and  _22
REMARK   11  A    between atoms: _21  and  _24
REMARK   12  A    between atoms: _24  and  _25
REMARK   13  A    between atoms: _25  and  _26
REMARK   14  A    between atoms: _29  and  _31
REMARK   15  A    between atoms: _31  and  _32
REMARK   16  A    between atoms: _31  and  _34
REMARK   17  A    between atoms: _34  and  _35
REMARK   18  A    between atoms: _35  and  _36
REMARK   19  A    between atoms: _39  and  _41
REMARK   20  A    between atoms: _41  and  _42
REMARK   21  A    between atoms: _41  and  _44
REMARK   22  A    between atoms: _44  and  _45
REMARK   23  A    between atoms: _50  and  _51
REMARK   24  A    between atoms: _53  and  _55
REMARK   25  A    between atoms: _55  and  _56
REMARK   26  A    between atoms: _55  and  _58
REMARK   27  A    between atoms: _58  and  _59
REMARK   28  A    between atoms: _64  and  _66
REMARK   29  A    between atoms: _66  and  _67
REMARK   30  A    between atoms: _66  and  _69
REMARK   31  A    between atoms: _69  and  _70
REMARK   32  A    between atoms: _73  and  _75
REMARK   33  A    between atoms: _75  and  _76
REMARK   34  A    between atoms: _75  and  _78
REMARK   35  A    between atoms: _78  and  _79
REMARK   36  A    between atoms: _82  and  _84
REMARK   37  A    between atoms: _84  and  _85
REMARK   38  A    between atoms: _87  and  _89
REMARK   39  A    between atoms: _89  and  _90
REMARK   40  A    between atoms: _89  and  _92
REMARK   41  A    between atoms: _92  and  _93
REMARK   42  A    between atoms: _95  and  _97
REMARK   43  A    between atoms: _97  and  _98
REMARK   44  A    between atoms: _97  and  _100
REMARK   45  A    between atoms: _100  and  _101
REMARK   46  A    between atoms: _104  and  _106
REMARK   47  A    between atoms: _106  and  _107
REMARK   48  A    between atoms: _106  and  _109
REMARK   49  A    between atoms: _109  and  _110
REMARK   50  A    between atoms: _112  and  _114
REMARK   51  A    between atoms: _114  and  _115
REMARK   52  A    between atoms: _114  and  _117
REMARK   53  A    between atoms: _117  and  _118
REMARK   54  A    between atoms: _123  and  _124
REMARK   55  A    between atoms: _126  and  _128
REMARK   56  A    between atoms: _128  and  _129
REMARK   57  A    between atoms: _131  and  _133
REMARK   58  A    between atoms: _133  and  _134
REMARK   59  A    between atoms: _133  and  _136
REMARK   60  A    between atoms: _136  and  _137
REMARK   61  A    between atoms: _140  and  _142
REMARK   62  A    between atoms: _142  and  _143
REMARK   63  A    between atoms: _145  and  _147
REMARK   64  A    between atoms: _147  and  _148
REMARK   65  A    between atoms: _147  and  _150
REMARK   66  A    between atoms: _150  and  _151
REMARK   67  A    between atoms: _153  and  _155
REMARK   68  A    between atoms: _155  and  _156
REMARK   69  A    between atoms: _155  and  _158
REMARK   70  A    between atoms: _158  and  _159
REMARK   71  A    between atoms: _159  and  _160
REMARK   72  A    between atoms: _165  and  _167
REMARK   73  A    between atoms: _167  and  _168
REMARK   74  A    between atoms: _167  and  _170
REMARK   75  A    between atoms: _170  and  _171
REMARK   76  A    between atoms: _177  and  _179
REMARK   77  A    between atoms: _179  and  _180
REMARK   78  A    between atoms: _179  and  _182
REMARK   79  A    between atoms: _182  and  _183
REMARK   80  A    between atoms: _186  and  _188
REMARK   81  A    between atoms: _188  and  _189
REMARK   82  A    between atoms: _188  and  _191
REMARK   83  A    between atoms: _191  and  _192
REMARK   84  A    between atoms: _197  and  _199
REMARK   85  A    between atoms: _199  and  _200
REMARK   86  A    between atoms: _199  and  _202
REMARK   87  A    between atoms: _202  and  _203
REMARK   88  A    between atoms: _208  and  _210
REMARK   89  A    between atoms: _210  and  _211
REMARK   90  A    between atoms: _210  and  _213
REMARK   91  A    between atoms: _213  and  _214
REMARK   92  A    between atoms: _217  and  _219
REMARK   93  A    between atoms: _219  and  _220
REMARK   94  A    between atoms: _223  and  _225
REMARK   95  A    between atoms: _225  and  _226
REMARK   96  A    between atoms: _225  and  _228
REMARK   97  A    between atoms: _228  and  _229
REMARK   98  A    between atoms: _232  and  _234
REMARK   99  A    between atoms: _234  and  _235
REMARK  100  A    between atoms: _234  and  _237
REMARK  101  A    between atoms: _237  and  _238
REMARK  102  A    between atoms: _244  and  _246
REMARK  103  A    between atoms: _246  and  _247
REMARK  104  A    between atoms: _246  and  _249
REMARK  105  A    between atoms: _249  and  _250
REMARK  106  A    between atoms: _253  and  _255
REMARK  107  A    between atoms: _255  and  _256
REMARK  108  A    between atoms: _255  and  _258
REMARK  109  A    between atoms: _258  and  _259
REMARK  110  A    between atoms: _262  and  _264
REMARK  111  A    between atoms: _264  and  _265
REMARK  112  A    between atoms: _264  and  _267
REMARK  113  A    between atoms: _267  and  _268
REMARK  114  A    between atoms: _271  and  _273
REMARK  115  A    between atoms: _273  and  _274
REMARK  116  A    between atoms: _276  and  _278
REMARK  117  A    between atoms: _278  and  _279
REMARK  118  A    between atoms: _278  and  _281
REMARK  119  A    between atoms: _281  and  _282
REMARK  120  A    between atoms: _285  and  _287
REMARK  121  A    between atoms: _287  and  _288
REMARK  122  A    between atoms: _287  and  _290
REMARK  123  A    between atoms: _290  and  _291
REMARK  124  A    between atoms: _294  and  _296
REMARK  125  A    between atoms: _296  and  _297
REMARK  126  A    between atoms: _296  and  _299
REMARK  127  A    between atoms: _299  and  _300
REMARK  128  A    between atoms: _303  and  _305
REMARK  129  A    between atoms: _305  and  _306
REMARK  130  A    between atoms: _305  and  _308
REMARK  131  A    between atoms: _308  and  _309
REMARK  132  A    between atoms: _312  and  _314
REMARK  133  A    between atoms: _314  and  _315
REMARK  134  A    between atoms: _314  and  _317
REMARK  135  A    between atoms: _317  and  _318
REMARK  136  A    between atoms: _321  and  _323
REMARK  137  A    between atoms: _323  and  _324
REMARK  138  A    between atoms: _323  and  _326
REMARK  139  A    between atoms: _326  and  _327
REMARK  140  A    between atoms: _330  and  _332
REMARK  141  A    between atoms: _332  and  _333
REMARK  142  A    between atoms: _332  and  _335
REMARK  143  A    between atoms: _335  and  _336
REMARK  144  A    between atoms: _338  and  _340
REMARK  145  A    between atoms: _340  and  _341
REMARK  146  A    between atoms: _340  and  _343
REMARK  147  A    between atoms: _343  and  _344
REMARK  148  A    between atoms: _349  and  _351
REMARK  149  A    between atoms: _351  and  _352
REMARK  150  A    between atoms: _355  and  _357
REMARK  151  A    between atoms: _357  and  _358
REMARK  152  A    between atoms: _360  and  _362
REMARK  153  A    between atoms: _362  and  _363
REMARK  154  A    between atoms: _365  and  _367
REMARK  155  A    between atoms: _367  and  _368
REMARK  156  A    between atoms: _367  and  _370
REMARK  157  A    between atoms: _370  and  _371
REMARK  158  A    between atoms: _376  and  _377
REMARK  159  A    between atoms: _379  and  _381
REMARK  160  A    between atoms: _381  and  _382
REMARK  161  A    between atoms: _381  and  _384
REMARK  162  A    between atoms: _384  and  _385
REMARK  163  A    between atoms: _390  and  _391
REMARK  164  A    between atoms: _393  and  _395
REMARK  165  A    between atoms: _395  and  _396
REMARK  166  A    between atoms: _395  and  _398
REMARK  167  A    between atoms: _398  and  _399
REMARK  168  A    between atoms: _401  and  _403
REMARK  169  A    between atoms: _403  and  _404
REMARK  170  A    between atoms: _403  and  _406
REMARK  171  A    between atoms: _406  and  _407
REMARK  172  A    between atoms: _410  and  _412
REMARK  173  A    between atoms: _412  and  _413
REMARK  174  A    between atoms: _415  and  _417
REMARK  175  A    between atoms: _417  and  _418
REMARK  176  A    between atoms: _420  and  _422
REMARK  177  A    between atoms: _422  and  _423
REMARK  178  A    between atoms: _422  and  _425
REMARK  179  A    between atoms: _425  and  _426
REMARK  180  A    between atoms: _429  and  _431
REMARK  181  A    between atoms: _431  and  _432
REMARK  182  A    between atoms: _431  and  _434
REMARK  183  A    between atoms: _434  and  _435
REMARK  184  A    between atoms: _435  and  _436
REMARK  185  A    between atoms: _441  and  _443
REMARK  186  A    between atoms: _443  and  _444
REMARK  187  A    between atoms: _443  and  _446
REMARK  188  A    between atoms: _446  and  _447
REMARK  189  A    between atoms: _449  and  _451
REMARK  190  A    between atoms: _451  and  _452
REMARK  191  A    between atoms: _451  and  _454
REMARK  192  A    between atoms: _454  and  _455
REMARK  193  A    between atoms: _460  and  _462
REMARK  194  A    between atoms: _462  and  _463
REMARK  195  A    between atoms: _462  and  _465
REMARK  196  A    between atoms: _465  and  _466
REMARK  197  A    between atoms: _468  and  _470
REMARK  198  A    between atoms: _470  and  _471
REMARK  199  A    between atoms: _473  and  _475
REMARK  200  A    between atoms: _475  and  _476
REMARK  201  A    between atoms: _475  and  _478
REMARK  202  A    between atoms: _478  and  _479
REMARK  203  A    between atoms: _482  and  _484
REMARK  204  A    between atoms: _484  and  _485
REMARK  205  A    between atoms: _484  and  _487
REMARK  206  A    between atoms: _487  and  _488
REMARK  207  A    between atoms: _494  and  _496
REMARK  208  A    between atoms: _496  and  _497
REMARK  209  A    between atoms: _496  and  _499
REMARK  210  A    between atoms: _499  and  _500
REMARK  211  A    between atoms: _502  and  _504
REMARK  212  A    between atoms: _504  and  _505
REMARK  213  A    between atoms: _504  and  _507
REMARK  214  A    between atoms: _507  and  _508
REMARK  215  A    between atoms: _511  and  _513
REMARK  216  A    between atoms: _513  and  _514
REMARK  217  A    between atoms: _516  and  _518
REMARK  218  A    between atoms: _518  and  _519
REMARK  219  A    between atoms: _518  and  _521
REMARK  220  A    between atoms: _521  and  _522
REMARK  221  A    between atoms: _525  and  _527
REMARK  222  A    between atoms: _527  and  _528
REMARK  223  A    between atoms: _527  and  _530
REMARK  224  A    between atoms: _530  and  _531
REMARK  225  A    between atoms: _533  and  _535
REMARK  226  A    between atoms: _535  and  _536
REMARK  227  A    between atoms: _538  and  _540
REMARK  228  A    between atoms: _540  and  _541
REMARK  229  A    between atoms: _540  and  _543
REMARK  230  A    between atoms: _543  and  _544
REMARK  231  A    between atoms: _549  and  _550
REMARK  232  A    between atoms: _552  and  _554
REMARK  233  A    between atoms: _554  and  _555
REMARK  234  A    between atoms: _554  and  _557
REMARK  235  A    between atoms: _557  and  _558
REMARK  236  A    between atoms: _561  and  _563
REMARK  237  A    between atoms: _563  and  _564
REMARK  238  A    between atoms: _563  and  _566
REMARK  239  A    between atoms: _566  and  _567
REMARK  240  A    between atoms: _567  and  _568
REMARK  241  A    between atoms: _574  and  _575
REMARK  242  A    between atoms: _580  and  _582
REMARK  243  A    between atoms: _582  and  _583
REMARK  244  A    between atoms: _582  and  _585
REMARK  245  A    between atoms: _585  and  _586
REMARK  246  A    between atoms: _586  and  _587
REMARK                            x       y       z     vdW  Elec       q    Type
REMARK                         _______ _______ _______ _____ _____    ______ ____
ROOT
ATOM      1  CG  TYR A   1       9.847   5.974  14.078  0.00  0.00    -0.020 A 
ATOM      2  CD2 TYR A   1      10.064   4.640  14.424  0.00  0.00    -0.001 A 
ATOM      3  CE2 TYR A   1      11.327   4.057  14.290  0.00  0.00    +0.036 A 
ATOM      4  CZ  TYR A   1      12.373   4.830  13.813  0.00  0.00    +0.134 A 
ATOM      5  CE1 TYR A   1      12.168   6.141  13.470  0.00  0.00    +0.036 A 
ATOM      6  CD1 TYR A   1      10.917   6.713  13.613  0.00  0.00    -0.001 A 
ENDROOT
BRANCH   4   7
ATOM      7  OH  TYR A   1      13.637   4.304  13.661  0.00  0.00    -0.506 OA
ATOM      8  HH  TYR A   1      13.603   3.546  13.025  0.00  0.00    +0.292 HD
ENDBRANCH   4   7
BRANCH   1   9
ATOM      9  CB  TYR A   1       8.499   6.622  14.280  0.00  0.00    +0.051 C 
BRANCH   9  10
ATOM     10  CA  TYR A   1       7.756   6.933  12.979  0.00  0.00    +0.137 C 
BRANCH  10  11
ATOM     11  N   TYR A   1       6.377   7.335  13.280  0.00  0.00    -0.239 NA
ATOM     12  H   TYR A   1       6.010   7.193  14.243  0.00  0.00    +0.142 HD
ENDBRANCH  10  11
BRANCH  10  13
ATOM     13  C   TYR A   1       7.874   5.782  11.985  0.00  0.00    +0.224 C 
ATOM     14  O   TYR A   1       8.687   5.809  11.063  0.00  0.00    -0.287 OA
ENDBRANCH  10  13
ENDBRANCH   9  10
ENDBRANCH   1   9
TORSDOF 5
REMARK  Name = ../refined-set-2016/2wec/2wec_pocket.pdb
REMARK  246 active torsions:
REMARK  status: ('A' for Active; 'I' for Inactive)
REMARK    1  A    between atoms: _1  and  _3
REMARK    2  A    between atoms: _3  and  _4
REMARK    3  A    between atoms: _3  and  _6
REMARK    4  A    between atoms: _6  and  _7
REMARK    5  A    between atoms: _10  and  _12
REMARK    6  A    between atoms: _12  and  _13
REMARK    7  A    between atoms: _12  and  _15
REMARK    8  A    between atoms: _15  and  _16
REMARK    9  A    between atoms: _19  and  _21
REMARK   10  A    between atoms: _21  and  _22
REMARK   11  A    between atoms: _21  and  _24
REMARK   12  A    between atoms: _24  and  _25
REMARK   13  A    between atoms: _25  and  _26
REMARK   14  A    between atoms: _29  and  _31
REMARK   15  A    between atoms: _31  and  _32
REMARK   16  A    between atoms: _31  and  _34
REMARK   17  A    between atoms: _34  and  _35
REMARK   18  A    between atoms: _35  and  _36
REMARK   19  A    between atoms: _39  and  _41
REMARK   20  A    between atoms: _41  and  _42
REMARK   21  A    between atoms: _41  and  _44
REMARK   22  A    between atoms: _44  and  _45
REMARK   23  A    between atoms: _50  and  _51
REMARK   24  A    between atoms: _53  and  _55
REMARK   25  A    between atoms: _55  and  _56
REMARK   26  A    between atoms: _55  and  _58
REMARK   27  A    between atoms: _58  and  _59
REMARK   28  A    between atoms: _64  and  _66
REMARK   29  A    between atoms: _66  and  _67
REMARK   30  A    between atoms: _66  and  _69
REMARK   31  A    between atoms: _69  and  _70
REMARK   32  A    between atoms: _73  and  _75
REMARK   33  A    between atoms: _75  and  _76
REMARK   34  A    between atoms: _75  and  _78
REMARK   35  A    between atoms: _78  and  _79
REMARK   36  A    between atoms: _82  and  _84
REMARK   37  A    between atoms: _84  and  _85
REMARK   38  A    between atoms: _87  and  _89
REMARK   39  A    between atoms: _89  and  _90
REMARK   40  A    between atoms: _89  and  _92
REMARK   41  A    between atoms: _92  and  _93
REMARK   42  A    between atoms: _95  and  _97
REMARK   43  A    between atoms: _97  and  _98
REMARK   44  A    between atoms: _97  and  _100
REMARK   45  A    between atoms: _100  and  _101
REMARK   46  A    between atoms: _104  and  _106
REMARK   47  A    between atoms: _106  and  _107
REMARK   48  A    between atoms: _106  and  _109
REMARK   49  A    between atoms: _109  and  _110
REMARK   50  A    between atoms: _112  and  _114
REMARK   51  A    between atoms: _114  and  _115
REMARK   52  A    between atoms: _114  and  _117
REMARK   53  A    between atoms: _117  and  _118
REMARK   54  A    between atoms: _123  and  _124
REMARK   55  A    between atoms: _126  and  _128
REMARK   56  A    between atoms: _128  and  _129
REMARK   57  A    between atoms: _131  and  _133
REMARK   58  A    between atoms: _133  and  _134
REMARK   59  A    between atoms: _133  and  _136
REMARK   60  A    between atoms: _136  and  _137
REMARK   61  A    between atoms: _140  and  _142
REMARK   62  A    between atoms: _142  and  _143
REMARK   63  A    between atoms: _145  and  _147
REMARK   64  A    between atoms: _147  and  _148
REMARK   65  A    between atoms: _147  and  _150
REMARK   66  A    between atoms: _150  and  _151
REMARK   67  A    between atoms: _153  and  _155
REMARK   68  A    between atoms: _155  and  _156
REMARK   69  A    between atoms: _155  and  _158
REMARK   70  A    between atoms: _158  and  _159
REMARK   71  A    between atoms: _159  and  _160
REMARK   72  A    between atoms: _165  and  _167
REMARK   73  A    between atoms: _167  and  _168
REMARK   74  A    between atoms: _167  and  _170
REMARK   75  A    between atoms: _170  and  _171
REMARK   76  A    between atoms: _177  and  _179
REMARK   77  A    between atoms: _179  and  _180
REMARK   78  A    between atoms: _179  and  _182
REMARK   79  A    between atoms: _182  and  _183
REMARK   80  A    between atoms: _186  and  _188
REMARK   81  A    between atoms: _188  and  _189
REMARK   82  A    between atoms: _188  and  _191
REMARK   83  A    between atoms: _191  and  _192
REMARK   84  A    between atoms: _197  and  _199
REMARK   85  A    between atoms: _199  and  _200
REMARK   86  A    between atoms: _199  and  _202
REMARK   87  A    between atoms: _202  and  _203
REMARK   88  A    between atoms: _208  and  _210
REMARK   89  A    between atoms: _210  and  _211
REMARK   90  A    between atoms: _210  and  _213
REMARK   91  A    between atoms: _213  and  _214
REMARK   92  A    between atoms: _217  and  _219
REMARK   93  A    between atoms: _219  and  _220
REMARK   94  A    between atoms: _223  and  _225
REMARK   95  A    between atoms: _225  and  _226
REMARK   96  A    between atoms: _225  and  _228
REMARK   97  A    between atoms: _228  and  _229
REMARK   98  A    between atoms: _232  and  _234
REMARK   99  A    between atoms: _234  and  _235
REMARK  100  A    between atoms: _234  and  _237
REMARK  101  A    between atoms: _237  and  _238
REMARK  102  A    between atoms: _244  and  _246
REMARK  103  A    between atoms: _246  and  _247
REMARK  104  A    between atoms: _246  and  _249
REMARK  105  A    between atoms: _249  and  _250
REMARK  106  A    between atoms: _253  and  _255
REMARK  107  A    between atoms: _255  and  _256
REMARK  108  A    between atoms: _255  and  _258
REMARK  109  A    between atoms: _258  and  _259
REMARK  110  A    between atoms: _262  and  _264
REMARK  111  A    between atoms: _264  and  _265
REMARK  112  A    between atoms: _264  and  _267
REMARK  113  A    between atoms: _267  and  _268
REMARK  114  A    between atoms: _271  and  _273
REMARK  115  A    between atoms: _273  and  _274
REMARK  116  A    between atoms: _276  and  _278
REMARK  117  A    between atoms: _278  and  _279
REMARK  118  A    between atoms: _278  and  _281
REMARK  119  A    between atoms: _281  and  _282
REMARK  120  A    between atoms: _285  and  _287
REMARK  121  A    between atoms: _287  and  _288
REMARK  122  A    between atoms: _287  and  _290
REMARK  123  A    between atoms: _290  and  _291
REMARK  124  A    between atoms: _294  and  _296
REMARK  125  A    between atoms: _296  and  _297
REMARK  126  A    between atoms: _296  and  _299
REMARK  127  A    between atoms: _299  and  _300
REMARK  128  A    between atoms: _303  and  _305
REMARK  129  A    between atoms: _305  and  _306
REMARK  130  A    between atoms: _305  and  _308
REMARK  131  A    between atoms: _308  and  _309
REMARK  132  A    between atoms: _312  and  _314
REMARK  133  A    between atoms: _314  and  _315
REMARK  134  A    between atoms: _314  and  _317
REMARK  135  A    between atoms: _317  and  _318
REMARK  136  A    between atoms: _321  and  _323
REMARK  137  A    between atoms: _323  and  _324
REMARK  138  A    between atoms: _323  and  _326
REMARK  139  A    between atoms: _326  and  _327
REMARK  140  A    between atoms: _330  and  _332
REMARK  141  A    between atoms: _332  and  _333
REMARK  142  A    between atoms: _332  and  _335
REMARK  143  A    between atoms: _335  and  _336
REMARK  144  A    between atoms: _338  and  _340
REMARK  145  A    between atoms: _340  and  _341
REMARK  146  A    between atoms: _340  and  _343
REMARK  147  A    between atoms: _343  and  _344
REMARK  148  A    between atoms: _349  and  _351
REMARK  149  A    between atoms: _351  and  _352
REMARK  150  A    between atoms: _355  and  _357
REMARK  151  A    between atoms: _357  and  _358
REMARK  152  A    between atoms: _360  and  _362
REMARK  153  A    between atoms: _362  and  _363
REMARK  154  A    between atoms: _365  and  _367
REMARK  155  A    between atoms: _367  and  _368
REMARK  156  A    between atoms: _367  and  _370
REMARK  157  A    between atoms: _370  and  _371
REMARK  158  A    between atoms: _376  and  _377
REMARK  159  A    between atoms: _379  and  _381
REMARK  160  A    between atoms: _381  and  _382
REMARK  161  A    between atoms: _381  and  _384
REMARK  162  A    between atoms: _384  and  _385
REMARK  163  A    between atoms: _390  and  _391
REMARK  164  A    between atoms: _393  and  _395
REMARK  165  A    between atoms: _395  and  _396
REMARK  166  A    between atoms: _395  and  _398
REMARK  167  A    between atoms: _398  and  _399
REMARK  168  A    between atoms: _401  and  _403
REMARK  169  A    between atoms: _403  and  _404
REMARK  170  A    between atoms: _403  and  _406
REMARK  171  A    between atoms: _406  and  _407
REMARK  172  A    between atoms: _410  and  _412
REMARK  173  A    between atoms: _412  and  _413
REMARK  174  A    between atoms: _415  and  _417
REMARK  175  A    between atoms: _417  and  _418
REMARK  176  A    between atoms: _420  and  _422
REMARK  177  A    between atoms: _422  and  _423
REMARK  178  A    between atoms: _422  and  _425
REMARK  179  A    between atoms: _425  and  _426
REMARK  180  A    between atoms: _429  and  _431
REMARK  181  A    between atoms: _431  and  _432
REMARK  182  A    between atoms: _431  and  _434
REMARK  183  A    between atoms: _434  and  _435
REMARK  184  A    between atoms: _435  and  _436
REMARK  185  A    between atoms: _441  and  _443
REMARK  186  A    between atoms: _443  and  _444
REMARK  187  A    between atoms: _443  and  _446
REMARK  188  A    between atoms: _446  and  _447
REMARK  189  A    between atoms: _449  and  _451
REMARK  190  A    between atoms: _451  and  _452
REMARK  191  A    between atoms: _451  and  _454
REMARK  192  A    between atoms: _454  and  _455
REMARK  193  A    between atoms: _460  and  _462
REMARK  194  A    between atoms: _462  and  _463
REMARK  195  A    between atoms: _462  and  _465
REMARK  196  A    between atoms: _465  and  _466
REMARK  197  A    between atoms: _468  and  _470
REMARK  198  A    between atoms: _470  and  _471
REMARK  199  A    between atoms: _473  and  _475
REMARK  200  A    between atoms: _475  and  _476
REMARK  201  A    between atoms: _475  and  _478
REMARK  202  A    between atoms: _478  and  _479
REMARK  203  A    between atoms: _482  and  _484
REMARK  204  A    between atoms: _484  and  _485
REMARK  205  A    between atoms: _484  and  _487
REMARK  206  A    between atoms: _487  and  _488
REMARK  207  A    between atoms: _494  and  _496
REMARK  208  A    between atoms: _496  and  _497
REMARK  209  A    between atoms: _496  and  _499
REMARK  210  A    between atoms: _499  and  _500
REMARK  211  A    between atoms: _502  and  _504
REMARK  212  A    between atoms: _504  and  _505
REMARK  213  A    between atoms: _504  and  _507
REMARK  214  A    between atoms: _507  and  _508
REMARK  215  A    between atoms: _511  and  _513
REMARK  216  A    between atoms: _513  and  _514
REMARK  217  A    between atoms: _516  and  _518
REMARK  218  A    between atoms: _518  and  _519
REMARK  219  A    between atoms: _518  and  _521
REMARK  220  A    between atoms: _521  and  _522
REMARK  221  A    between atoms: _525  and  _527
REMARK  222  A    between atoms: _527  and  _528
REMARK  223  A    between atoms: _527  and  _530
REMARK  224  A    between atoms: _530  and  _531
REMARK  225  A    between atoms: _533  and  _535
REMARK  226  A    between atoms: _535  and  _536
REMARK  227  A    between atoms: _538  and  _540
REMARK  228  A    between atoms: _540  and  _541
REMARK  229  A    between atoms: _540  and  _543
REMARK  230  A    between atoms: _543  and  _544
REMARK  231  A    between atoms: _549  and  _550
REMARK  232  A    between atoms: _552  and  _554
REMARK  233  A    between atoms: _554  and  _555
REMARK  234  A    between atoms: _554  and  _557
REMARK  235  A    between atoms: _557  and  _558
REMARK  236  A    between atoms: _561  and  _563
REMARK  237  A    between atoms: _563  and  _564
REMARK  238  A    between atoms: _563  and  _566
REMARK  239  A    between atoms: _566  and  _567
REMARK  240  A    between atoms: _567  and  _568
REMARK  241  A    between atoms: _574  and  _575
REMARK  242  A    between atoms: _580  and  _582
REMARK  243  A    between atoms: _582  and  _583
REMARK  244  A    between atoms: _582  and  _585
REMARK  245  A    between atoms: _585  and  _586
REMARK  246  A    between atoms: _586  and  _587
REMARK                            x       y       z     vdW  Elec       q    Type
REMARK                         _______ _______ _______ _____ _____    ______ ____
ROOT
ATOM      1  CA  SER A   1       6.837  -0.695  15.643  0.00  0.00    +0.163 C 
ENDROOT
BRANCH   1   2
ATOM      2  N   SER A   1       6.290  -0.533  14.299  0.00  0.00    -0.237 NA
ATOM      3  H   SER A   1       5.276  -0.704  14.145  0.00  0.00    +0.142 HD
ENDBRANCH   1   2
BRANCH   1   4
ATOM      4  CB  SER A   1       7.803  -1.878  15.726  0.00  0.00    +0.227 C 
ATOM      5  OG  SER A   1       8.620  -1.953  16.648  0.00  0.00    -0.287 OA
ENDBRANCH   1   4
BRANCH   1   6
ATOM      6  C   SER A   1       5.708  -0.941  16.630  0.00  0.00    +0.162 C 
BRANCH   6   7
ATOM      7  O   SER A   1       5.174  -2.222  16.370  0.00  0.00    -0.380 OA
ATOM      8  H   SER A   1       4.435  -2.405  17.003  0.00  0.00    +0.211 HD
ENDBRANCH   6   7
ENDBRANCH   1   6
TORSDOF 4
REMARK  Name = ../refined-set-2016/2wec/2wec_pocket.pdb
REMARK  246 active torsions:
REMARK  status: ('A' for Active; 'I' for Inactive)
REMARK    1  A    between atoms: _1  and  _3
REMARK    2  A    between atoms: _3  and  _4
REMARK    3  A    between atoms: _3  and  _6
REMARK    4  A    between atoms: _6  and  _7
REMARK    5  A    between atoms: _10  and  _12
REMARK    6  A    between atoms: _12  and  _13
REMARK    7  A    between atoms: _12  and  _15
REMARK    8  A    between atoms: _15  and  _16
REMARK    9  A    between atoms: _19  and  _21
REMARK   10  A    between atoms: _21  and  _22
REMARK   11  A    between atoms: _21  and  _24
REMARK   12  A    between atoms: _24  and  _25
REMARK   13  A    between atoms: _25  and  _26
REMARK   14  A    between atoms: _29  and  _31
REMARK   15  A    between atoms: _31  and  _32
REMARK   16  A    between atoms: _31  and  _34
REMARK   17  A    between atoms: _34  and  _35
REMARK   18  A    between atoms: _35  and  _36
REMARK   19  A    between atoms: _39  and  _41
REMARK   20  A    between atoms: _41  and  _42
REMARK   21  A    between atoms: _41  and  _44
REMARK   22  A    between atoms: _44  and  _45
REMARK   23  A    between atoms: _50  and  _51
REMARK   24  A    between atoms: _53  and  _55
REMARK   25  A    between atoms: _55  and  _56
REMARK   26  A    between atoms: _55  and  _58
REMARK   27  A    between atoms: _58  and  _59
REMARK   28  A    between atoms: _64  and  _66
REMARK   29  A    between atoms: _66  and  _67
REMARK   30  A    between atoms: _66  and  _69
REMARK   31  A    between atoms: _69  and  _70
REMARK   32  A    between atoms: _73  and  _75
REMARK   33  A    between atoms: _75  and  _76
REMARK   34  A    between atoms: _75  and  _78
REMARK   35  A    between atoms: _78  and  _79
REMARK   36  A    between atoms: _82  and  _84
REMARK   37  A    between atoms: _84  and  _85
REMARK   38  A    between atoms: _87  and  _89
REMARK   39  A    between atoms: _89  and  _90
REMARK   40  A    between atoms: _89  and  _92
REMARK   41  A    between atoms: _92  and  _93
REMARK   42  A    between atoms: _95  and  _97
REMARK   43  A    between atoms: _97  and  _98
REMARK   44  A    between atoms: _97  and  _100
REMARK   45  A    between atoms: _100  and  _101
REMARK   46  A    between atoms: _104  and  _106
REMARK   47  A    between atoms: _106  and  _107
REMARK   48  A    between atoms: _106  and  _109
REMARK   49  A    between atoms: _109  and  _110
REMARK   50  A    between atoms: _112  and  _114
REMARK   51  A    between atoms: _114  and  _115
REMARK   52  A    between atoms: _114  and  _117
REMARK   53  A    between atoms: _117  and  _118
REMARK   54  A    between atoms: _123  and  _124
REMARK   55  A    between atoms: _126  and  _128
REMARK   56  A    between atoms: _128  and  _129
REMARK   57  A    between atoms: _131  and  _133
REMARK   58  A    between atoms: _133  and  _134
REMARK   59  A    between atoms: _133  and  _136
REMARK   60  A    between atoms: _136  and  _137
REMARK   61  A    between atoms: _140  and  _142
REMARK   62  A    between atoms: _142  and  _143
REMARK   63  A    between atoms: _145  and  _147
REMARK   64  A    between atoms: _147  and  _148
REMARK   65  A    between atoms: _147  and  _150
REMARK   66  A    between atoms: _150  and  _151
REMARK   67  A    between atoms: _153  and  _155
REMARK   68  A    between atoms: _155  and  _156
REMARK   69  A    between atoms: _155  and  _158
REMARK   70  A    between atoms: _158  and  _159
REMARK   71  A    between atoms: _159  and  _160
REMARK   72  A    between atoms: _165  and  _167
REMARK   73  A    between atoms: _167  and  _168
REMARK   74  A    between atoms: _167  and  _170
REMARK   75  A    between atoms: _170  and  _171
REMARK   76  A    between atoms: _177  and  _179
REMARK   77  A    between atoms: _179  and  _180
REMARK   78  A    between atoms: _179  and  _182
REMARK   79  A    between atoms: _182  and  _183
REMARK   80  A    between atoms: _186  and  _188
REMARK   81  A    between atoms: _188  and  _189
REMARK   82  A    between atoms: _188  and  _191
REMARK   83  A    between atoms: _191  and  _192
REMARK   84  A    between atoms: _197  and  _199
REMARK   85  A    between atoms: _199  and  _200
REMARK   86  A    between atoms: _199  and  _202
REMARK   87  A    between atoms: _202  and  _203
REMARK   88  A    between atoms: _208  and  _210
REMARK   89  A    between atoms: _210  and  _211
REMARK   90  A    between atoms: _210  and  _213
REMARK   91  A    between atoms: _213  and  _214
REMARK   92  A    between atoms: _217  and  _219
REMARK   93  A    between atoms: _219  and  _220
REMARK   94  A    between atoms: _223  and  _225
REMARK   95  A    between atoms: _225  and  _226
REMARK   96  A    between atoms: _225  and  _228
REMARK   97  A    between atoms: _228  and  _229
REMARK   98  A    between atoms: _232  and  _234
REMARK   99  A    between atoms: _234  and  _235
REMARK  100  A    between atoms: _234  and  _237
REMARK  101  A    between atoms: _237  and  _238
REMARK  102  A    between atoms: _244  and  _246
REMARK  103  A    between atoms: _246  and  _247
REMARK  104  A    between atoms: _246  and  _249
REMARK  105  A    between atoms: _249  and  _250
REMARK  106  A    between atoms: _253  and  _255
REMARK  107  A    between atoms: _255  and  _256
REMARK  108  A    between atoms: _255  and  _258
REMARK  109  A    between atoms: _258  and  _259
REMARK  110  A    between atoms: _262  and  _264
REMARK  111  A    between atoms: _264  and  _265
REMARK  112  A    between atoms: _264  and  _267
REMARK  113  A    between atoms: _267  and  _268
REMARK  114  A    between atoms: _271  and  _273
REMARK  115  A    between atoms: _273  and  _274
REMARK  116  A    between atoms: _276  and  _278
REMARK  117  A    between atoms: _278  and  _279
REMARK  118  A    between atoms: _278  and  _281
REMARK  119  A    between atoms: _281  and  _282
REMARK  120  A    between atoms: _285  and  _287
REMARK  121  A    between atoms: _287  and  _288
REMARK  122  A    between atoms: _287  and  _290
REMARK  123  A    between atoms: _290  and  _291
REMARK  124  A    between atoms: _294  and  _296
REMARK  125  A    between atoms: _296  and  _297
REMARK  126  A    between atoms: _296  and  _299
REMARK  127  A    between atoms: _299  and  _300
REMARK  128  A    between atoms: _303  and  _305
REMARK  129  A    between atoms: _305  and  _306
REMARK  130  A    between atoms: _305  and  _308
REMARK  131  A    between atoms: _308  and  _309
REMARK  132  A    between atoms: _312  and  _314
REMARK  133  A    between atoms: _314  and  _315
REMARK  134  A    between atoms: _314  and  _317
REMARK  135  A    between atoms: _317  and  _318
REMARK  136  A    between atoms: _321  and  _323
REMARK  137  A    between atoms: _323  and  _324
REMARK  138  A    between atoms: _323  and  _326
REMARK  139  A    between atoms: _326  and  _327
REMARK  140  A    between atoms: _330  and  _332
REMARK  141  A    between atoms: _332  and  _333
REMARK  142  A    between atoms: _332  and  _335
REMARK  143  A    between atoms: _335  and  _336
REMARK  144  A    between atoms: _338  and  _340
REMARK  145  A    between atoms: _340  and  _341
REMARK  146  A    between atoms: _340  and  _343
REMARK  147  A    between atoms: _343  and  _344
REMARK  148  A    between atoms: _349  and  _351
REMARK  149  A    between atoms: _351  and  _352
REMARK  150  A    between atoms: _355  and  _357
REMARK  151  A    between atoms: _357  and  _358
REMARK  152  A    between atoms: _360  and  _362
REMARK  153  A    between atoms: _362  and  _363
REMARK  154  A    between atoms: _365  and  _367
REMARK  155  A    between atoms: _367  and  _368
REMARK  156  A    between atoms: _367  and  _370
REMARK  157  A    between atoms: _370  and  _371
REMARK  158  A    between atoms: _376  and  _377
REMARK  159  A    between atoms: _379  and  _381
REMARK  160  A    between atoms: _381  and  _382
REMARK  161  A    between atoms: _381  and  _384
REMARK  162  A    between atoms: _384  and  _385
REMARK  163  A    between atoms: _390  and  _391
REMARK  164  A    between atoms: _393  and  _395
REMARK  165  A    between atoms: _395  and  _396
REMARK  166  A    between atoms: _395  and  _398
REMARK  167  A    between atoms: _398  and  _399
REMARK  168  A    between atoms: _401  and  _403
REMARK  169  A    between atoms: _403  and  _404
REMARK  170  A    between atoms: _403  and  _406
REMARK  171  A    between atoms: _406  and  _407
REMARK  172  A    between atoms: _410  and  _412
REMARK  173  A    between atoms: _412  and  _413
REMARK  174  A    between atoms: _415  and  _417
REMARK  175  A    between atoms: _417  and  _418
REMARK  176  A    between atoms: _420  and  _422
REMARK  177  A    between atoms: _422  and  _423
REMARK  178  A    between atoms: _422  and  _425
REMARK  179  A    between atoms: _425  and  _426
REMARK  180  A    between atoms: _429  and  _431
REMARK  181  A    between atoms: _431  and  _432
REMARK  182  A    between atoms: _431  and  _434
REMARK  183  A    between atoms: _434  and  _435
REMARK  184  A    between atoms: _435  and  _436
REMARK  185  A    between atoms: _441  and  _443
REMARK  186  A    between atoms: _443  and  _444
REMARK  187  A    between atoms: _443  and  _446
REMARK  188  A    between atoms: _446  and  _447
REMARK  189  A    between atoms: _449  and  _451
REMARK  190  A    between atoms: _451  and  _452
REMARK  191  A    between atoms: _451  and  _454
REMARK  192  A    between atoms: _454  and  _455
REMARK  193  A    between atoms: _460  and  _462
REMARK  194  A    between atoms: _462  and  _463
REMARK  195  A    between atoms: _462  and  _465
REMARK  196  A    between atoms: _465  and  _466
REMARK  197  A    between atoms: _468  and  _470
REMARK  198  A    between atoms: _470  and  _471
REMARK  199  A    between atoms: _473  and  _475
REMARK  200  A    between atoms: _475  and  _476
REMARK  201  A    between atoms: _475  and  _478
REMARK  202  A    between atoms: _478  and  _479
REMARK  203  A    between atoms: _482  and  _484
REMARK  204  A    between atoms: _484  and  _485
REMARK  205  A    between atoms: _484  and  _487
REMARK  206  A    between atoms: _487  and  _488
REMARK  207  A    between atoms: _494  and  _496
REMARK  208  A    between atoms: _496  and  _497
REMARK  209  A    between atoms: _496  and  _499
REMARK  210  A    between atoms: _499  and  _500
REMARK  211  A    between atoms: _502  and  _504
REMARK  212  A    between atoms: _504  and  _505
REMARK  213  A    between atoms: _504  and  _507
REMARK  214  A    between atoms: _507  and  _508
REMARK  215  A    between atoms: _511  and  _513
REMARK  216  A    between atoms: _513  and  _514
REMARK  217  A    between atoms: _516  and  _518
REMARK  218  A    between atoms: _518  and  _519
REMARK  219  A    between atoms: _518  and  _521
REMARK  220  A    between atoms: _521  and  _522
REMARK  221  A    between atoms: _525  and  _527
REMARK  222  A    between atoms: _527  and  _528
REMARK  223  A    between atoms: _527  and  _530
REMARK  224  A    between atoms: _530  and  _531
REMARK  225  A    between atoms: _533  and  _535
REMARK  226  A    between atoms: _535  and  _536
REMARK  227  A    between atoms: _538  and  _540
REMARK  228  A    between atoms: _540  and  _541
REMARK  229  A    between atoms: _540  and  _543
REMARK  230  A    between atoms: _543  and  _544
REMARK  231  A    between atoms: _549  and  _550
REMARK  232  A    between atoms: _552  and  _554
REMARK  233  A    between atoms: _554  and  _555
REMARK  234  A    between atoms: _554  and  _557
REMARK  235  A    between atoms: _557  and  _558
REMARK  236  A    between atoms: _561  and  _563
REMARK  237  A    between atoms: _563  and  _564
REMARK  238  A    between atoms: _563  and  _566
REMARK  239  A    between atoms: _566  and  _567
REMARK  240  A    between atoms: _567  and  _568
REMARK  241  A    between atoms: _574  and  _575
REMARK  242  A    between atoms: _580  and  _582
REMARK  243  A    between atoms: _582  and  _583
REMARK  244  A    between atoms: _582  and  _585
REMARK  245  A    between atoms: _585  and  _586
REMARK  246  A    between atoms: _586  and  _587
REMARK                            x       y       z     vdW  Elec       q    Type
REMARK                         _______ _______ _______ _____ _____    ______ ____
ROOT
ATOM      1  C   GLN A   5       9.232  10.129  24.772  0.00  0.00    +0.241 C 
ATOM      2  N   SER A   6       9.291   9.428  25.904  0.00  0.00    -0.295 N 
ATOM      3  H   SER A   6       8.932   8.452  25.906  0.00  0.00    +0.150 HD
ATOM      4  O   GLN A   5       9.666  11.303  24.643  0.00  0.00    -0.273 OA
ENDROOT
BRANCH   1   5
ATOM      5  CA  GLN A   5       8.584   9.414  23.610  0.00  0.00    +0.149 C 
BRANCH   5   7
ATOM      6  C   ILE A   4       7.395  10.307  21.671  0.00  0.00    +0.241 C 
ATOM      7  N   GLN A   5       8.417  10.396  22.533  0.00  0.00    -0.297 N 
ATOM      8  H   GLN A   5       9.102  11.173  22.437  0.00  0.00    +0.150 HD
ATOM      9  O   ILE A   4       6.566   9.419  21.748  0.00  0.00    -0.273 OA
BRANCH   6  10
ATOM     10  CA  ILE A   4       7.277  11.379  20.567  0.00  0.00    +0.149 C 
BRANCH  10  12
ATOM     11  C   GLY A   3       8.106  10.564  18.401  0.00  0.00    +0.243 C 
ATOM     12  N   ILE A   4       7.113  10.716  19.281  0.00  0.00    -0.297 N 
ATOM     13  H   ILE A   4       6.174  10.342  19.035  0.00  0.00    +0.150 HD
ATOM     14  O   GLY A   3       9.206  11.075  18.552  0.00  0.00    -0.273 OA
BRANCH  11  15
ATOM     15  CA  GLY A   3       7.797   9.818  17.123  0.00  0.00    +0.176 C 
BRANCH  15  18
ATOM     16  C   GLY A   2       6.571   7.838  17.948  0.00  0.00    +0.243 C 
ATOM     17  O   GLY A   2       7.555   7.380  18.548  0.00  0.00    -0.273 OA
ATOM     18  N   GLY A   3       6.601   8.975  17.240  0.00  0.00    -0.295 N 
ATOM     19  H   GLY A   3       5.735   9.275  16.749  0.00  0.00    +0.150 HD
BRANCH  16  20
ATOM     20  CA  GLY A   2       5.234   7.102  17.972  0.00  0.00    +0.176 C 
BRANCH  20  22
ATOM     21  C   LEU A   1       5.679   5.015  16.826  0.00  0.00    +0.238 C 
ATOM     22  N   GLY A   2       5.376   5.660  17.955  0.00  0.00    -0.296 N 
ATOM     23  H   GLY A   2       5.240   5.121  18.834  0.00  0.00    +0.150 HD
ATOM     24  O   LEU A   1       5.839   5.573  15.757  0.00  0.00    -0.274 OA
BRANCH  21  25
ATOM     25  CA  LEU A   1       5.854   3.492  16.913  0.00  0.00    +0.145 C 
BRANCH  25  26
ATOM     26  N   LEU A   1       5.237   2.857  15.783  0.00  0.00    -0.238 NA
ATOM     27  H   LEU A   1       5.808   2.649  14.939  0.00  0.00    +0.142 HD
ENDBRANCH  25  26
BRANCH  25  28
ATOM     28  CB  LEU A   1       7.354   3.145  16.902  0.00  0.00    +0.026 C 
BRANCH  28  29
ATOM     29  CG  LEU A   1       8.164   3.741  18.057  0.00  0.00    +0.002 C 
ATOM     30  CD2 LEU A   1       7.854   3.078  19.385  0.00  0.00    +0.000 C 
ATOM     31  CD1 LEU A   1       9.661   3.779  17.776  0.00  0.00    +0.000 C 
ENDBRANCH  28  29
ENDBRANCH  25  28
ENDBRANCH  21  25
ENDBRANCH  20  22
ENDBRANCH  16  20
ENDBRANCH  15  18
ENDBRANCH  11  15
ENDBRANCH  10  12
BRANCH  10  32
ATOM     32  CB  ILE A   4       6.053  12.312  20.868  0.00  0.00    +0.027 C 
ATOM     33  CG2 ILE A   4       6.036  12.744  22.322  0.00  0.00    +0.002 C 
BRANCH  32  34
ATOM     34  CG1 ILE A   4       6.028  13.477  19.891  0.00  0.00    +0.002 C 
ATOM     35  CD1 ILE A   4       4.878  14.448  20.143  0.00  0.00    +0.000 C 
ENDBRANCH  32  34
ENDBRANCH  10  32
ENDBRANCH   6  10
ENDBRANCH   5   7
BRANCH   5  36
ATOM     36  CB  GLN A   5       9.489   8.248  23.177  0.00  0.00    +0.039 C 
BRANCH  36  37
ATOM     37  CG  GLN A   5       9.012   7.426  21.930  0.00  0.00    +0.087 C 
BRANCH  37  38
ATOM     38  CD  GLN A   5       7.698   6.648  22.140  0.00  0.00    +0.219 C 
ATOM     39  OE1 GLN A   5       7.235   6.468  23.283  0.00  0.00    -0.275 OA
ATOM     40  NE2 GLN A   5       7.073   6.210  21.019  0.00  0.00    -0.329 N 
ATOM     41 HE21 GLN A   5       6.169   5.701  21.093  0.00  0.00    +0.145 HD
ATOM     42 HE22 GLN A   5       7.497   6.383  20.086  0.00  0.00    +0.145 HD
ENDBRANCH  37  38
ENDBRANCH  36  37
ENDBRANCH   5  36
ENDBRANCH   1   5
BRANCH   2  43
ATOM     43  CA  SER A   6       9.842   9.978  27.145  0.00  0.00    +0.178 C 
BRANCH  43  44
ATOM     44  C   SER A   6      11.329  10.323  27.097  0.00  0.00    +0.243 C 
ATOM     45  N   ASN A   7      11.696  11.392  27.795  0.00  0.00    -0.297 N 
ATOM     46  H   ASN A   7      10.962  11.957  28.268  0.00  0.00    +0.150 HD
ATOM     47  O   SER A   6      12.123   9.598  26.505  0.00  0.00    -0.273 OA
BRANCH  45  48
ATOM     48  CA  ASN A   7      13.078  11.801  27.922  0.00  0.00    +0.158 C 
BRANCH  48  49
ATOM     49  C   ASN A   7      13.684  11.192  29.182  0.00  0.00    +0.241 C 
ATOM     50  N   SER A   8      13.008  10.210  29.772  0.00  0.00    -0.295 N 
ATOM     51  H   SER A   8      12.079   9.926  29.400  0.00  0.00    +0.150 HD
ATOM     52  O   ASN A   7      14.754  11.622  29.632  0.00  0.00    -0.273 OA
BRANCH  50  53
ATOM     53  CA  SER A   8      13.562   9.528  30.939  0.00  0.00    +0.178 C 
BRANCH  53  54
ATOM     54  C   SER A   8      13.751  10.352  32.208  0.00  0.00    +0.243 C 
ATOM     55  O   SER A   8      14.520   9.956  33.094  0.00  0.00    -0.273 OA
ATOM     56  N   GLY A   9      13.077  11.501  32.279  0.00  0.00    -0.295 N 
ATOM     57  H   GLY A   9      12.488  11.795  31.474  0.00  0.00    +0.150 HD
BRANCH  56  58
ATOM     58  CA  GLY A   9      13.148  12.357  33.464  0.00  0.00    +0.176 C 
BRANCH  58  59
ATOM     59  C   GLY A   9      14.410  13.209  33.566  0.00  0.00    +0.243 C 
ATOM     60  O   GLY A   9      14.697  13.732  34.638  0.00  0.00    -0.273 OA
ATOM     61  N   ILE A  10      15.143  13.375  32.469  0.00  0.00    -0.298 N 
ATOM     62  H   ILE A  10      14.858  12.920  31.578  0.00  0.00    +0.150 HD
BRANCH  61  63
ATOM     63  CA  ILE A  10      16.363  14.208  32.518  0.00  0.00    +0.137 C 
BRANCH  63  64
ATOM     64  C   ILE A  10      16.225  15.729  32.742  0.00  0.00    +0.227 C 
ATOM     65  O   ILE A  10      17.222  16.396  32.974  0.00  0.00    -0.286 OA
ENDBRANCH  63  64
BRANCH  63  66
ATOM     66  CB  ILE A  10      17.312  13.999  31.342  0.00  0.00    +0.026 C 
ATOM     67  CG2 ILE A  10      17.808  12.556  31.312  0.00  0.00    +0.002 C 
BRANCH  66  68
ATOM     68  CG1 ILE A  10      16.642  14.464  30.047  0.00  0.00    +0.002 C 
ATOM     69  CD1 ILE A  10      17.485  14.241  28.798  0.00  0.00    +0.000 C 
ENDBRANCH  66  68
ENDBRANCH  63  66
ENDBRANCH  61  63
ENDBRANCH  58  59
ENDBRANCH  56  58
ENDBRANCH  53  54
BRANCH  53  70
ATOM     70  CB  SER A   8      14.871   8.809  30.584  0.00  0.00    +0.166 C 
BRANCH  70  71
ATOM     71  OG  SER A   8      14.645   7.853  29.568  0.00  0.00    -0.380 OA
ATOM     72  H   SER A   8      14.296   8.307  28.761  0.00  0.00    +0.211 HD
ENDBRANCH  70  71
ENDBRANCH  53  70
ENDBRANCH  50  53
ENDBRANCH  48  49
BRANCH  48  73
ATOM     73  CB  ASN A   7      13.213  13.321  27.951  0.00  0.00    +0.114 C 
BRANCH  73  74
ATOM     74  CG  ASN A   7      12.495  13.942  29.124  0.00  0.00    +0.222 C 
ATOM     75  OD1 ASN A   7      11.941  13.239  29.972  0.00  0.00    -0.275 OA
ATOM     76  ND2 ASN A   7      12.488  15.271  29.184  0.00  0.00    -0.329 N 
ATOM     77 HD21 ASN A   7      12.003  15.754  29.967  0.00  0.00    +0.145 HD
ATOM     78 HD22 ASN A   7      12.968  15.827  28.448  0.00  0.00    +0.145 HD
ENDBRANCH  73  74
ENDBRANCH  48  73
ENDBRANCH  45  48
ENDBRANCH  43  44
BRANCH  43  79
ATOM     79  CB  SER A   6       9.639   8.932  28.259  0.00  0.00    +0.166 C 
BRANCH  79  80
ATOM     80  OG  SER A   6      10.291   9.289  29.463  0.00  0.00    -0.380 OA
ATOM     81  H   SER A   6       9.933  10.153  29.787  0.00  0.00    +0.211 HD
ENDBRANCH  79  80
ENDBRANCH  43  79
ENDBRANCH   2  43
TORSDOF 35
REMARK  Name = ../refined-set-2016/2wec/2wec_pocket.pdb
REMARK  246 active torsions:
REMARK  status: ('A' for Active; 'I' for Inactive)
REMARK    1  A    between atoms: _1  and  _3
REMARK    2  A    between atoms: _3  and  _4
REMARK    3  A    between atoms: _3  and  _6
REMARK    4  A    between atoms: _6  and  _7
REMARK    5  A    between atoms: _10  and  _12
REMARK    6  A    between atoms: _12  and  _13
REMARK    7  A    between atoms: _12  and  _15
REMARK    8  A    between atoms: _15  and  _16
REMARK    9  A    between atoms: _19  and  _21
REMARK   10  A    between atoms: _21  and  _22
REMARK   11  A    between atoms: _21  and  _24
REMARK   12  A    between atoms: _24  and  _25
REMARK   13  A    between atoms: _25  and  _26
REMARK   14  A    between atoms: _29  and  _31
REMARK   15  A    between atoms: _31  and  _32
REMARK   16  A    between atoms: _31  and  _34
REMARK   17  A    between atoms: _34  and  _35
REMARK   18  A    between atoms: _35  and  _36
REMARK   19  A    between atoms: _39  and  _41
REMARK   20  A    between atoms: _41  and  _42
REMARK   21  A    between atoms: _41  and  _44
REMARK   22  A    between atoms: _44  and  _45
REMARK   23  A    between atoms: _50  and  _51
REMARK   24  A    between atoms: _53  and  _55
REMARK   25  A    between atoms: _55  and  _56
REMARK   26  A    between atoms: _55  and  _58
REMARK   27  A    between atoms: _58  and  _59
REMARK   28  A    between atoms: _64  and  _66
REMARK   29  A    between atoms: _66  and  _67
REMARK   30  A    between atoms: _66  and  _69
REMARK   31  A    between atoms: _69  and  _70
REMARK   32  A    between atoms: _73  and  _75
REMARK   33  A    between atoms: _75  and  _76
REMARK   34  A    between atoms: _75  and  _78
REMARK   35  A    between atoms: _78  and  _79
REMARK   36  A    between atoms: _82  and  _84
REMARK   37  A    between atoms: _84  and  _85
REMARK   38  A    between atoms: _87  and  _89
REMARK   39  A    between atoms: _89  and  _90
REMARK   40  A    between atoms: _89  and  _92
REMARK   41  A    between atoms: _92  and  _93
REMARK   42  A    between atoms: _95  and  _97
REMARK   43  A    between atoms: _97  and  _98
REMARK   44  A    between atoms: _97  and  _100
REMARK   45  A    between atoms: _100  and  _101
REMARK   46  A    between atoms: _104  and  _106
REMARK   47  A    between atoms: _106  and  _107
REMARK   48  A    between atoms: _106  and  _109
REMARK   49  A    between atoms: _109  and  _110
REMARK   50  A    between atoms: _112  and  _114
REMARK   51  A    between atoms: _114  and  _115
REMARK   52  A    between atoms: _114  and  _117
REMARK   53  A    between atoms: _117  and  _118
REMARK   54  A    between atoms: _123  and  _124
REMARK   55  A    between atoms: _126  and  _128
REMARK   56  A    between atoms: _128  and  _129
REMARK   57  A    between atoms: _131  and  _133
REMARK   58  A    between atoms: _133  and  _134
REMARK   59  A    between atoms: _133  and  _136
REMARK   60  A    between atoms: _136  and  _137
REMARK   61  A    between atoms: _140  and  _142
REMARK   62  A    between atoms: _142  and  _143
REMARK   63  A    between atoms: _145  and  _147
REMARK   64  A    between atoms: _147  and  _148
REMARK   65  A    between atoms: _147  and  _150
REMARK   66  A    between atoms: _150  and  _151
REMARK   67  A    between atoms: _153  and  _155
REMARK   68  A    between atoms: _155  and  _156
REMARK   69  A    between atoms: _155  and  _158
REMARK   70  A    between atoms: _158  and  _159
REMARK   71  A    between atoms: _159  and  _160
REMARK   72  A    between atoms: _165  and  _167
REMARK   73  A    between atoms: _167  and  _168
REMARK   74  A    between atoms: _167  and  _170
REMARK   75  A    between atoms: _170  and  _171
REMARK   76  A    between atoms: _177  and  _179
REMARK   77  A    between atoms: _179  and  _180
REMARK   78  A    between atoms: _179  and  _182
REMARK   79  A    between atoms: _182  and  _183
REMARK   80  A    between atoms: _186  and  _188
REMARK   81  A    between atoms: _188  and  _189
REMARK   82  A    between atoms: _188  and  _191
REMARK   83  A    between atoms: _191  and  _192
REMARK   84  A    between atoms: _197  and  _199
REMARK   85  A    between atoms: _199  and  _200
REMARK   86  A    between atoms: _199  and  _202
REMARK   87  A    between atoms: _202  and  _203
REMARK   88  A    between atoms: _208  and  _210
REMARK   89  A    between atoms: _210  and  _211
REMARK   90  A    between atoms: _210  and  _213
REMARK   91  A    between atoms: _213  and  _214
REMARK   92  A    between atoms: _217  and  _219
REMARK   93  A    between atoms: _219  and  _220
REMARK   94  A    between atoms: _223  and  _225
REMARK   95  A    between atoms: _225  and  _226
REMARK   96  A    between atoms: _225  and  _228
REMARK   97  A    between atoms: _228  and  _229
REMARK   98  A    between atoms: _232  and  _234
REMARK   99  A    between atoms: _234  and  _235
REMARK  100  A    between atoms: _234  and  _237
REMARK  101  A    between atoms: _237  and  _238
REMARK  102  A    between atoms: _244  and  _246
REMARK  103  A    between atoms: _246  and  _247
REMARK  104  A    between atoms: _246  and  _249
REMARK  105  A    between atoms: _249  and  _250
REMARK  106  A    between atoms: _253  and  _255
REMARK  107  A    between atoms: _255  and  _256
REMARK  108  A    between atoms: _255  and  _258
REMARK  109  A    between atoms: _258  and  _259
REMARK  110  A    between atoms: _262  and  _264
REMARK  111  A    between atoms: _264  and  _265
REMARK  112  A    between atoms: _264  and  _267
REMARK  113  A    between atoms: _267  and  _268
REMARK  114  A    between atoms: _271  and  _273
REMARK  115  A    between atoms: _273  and  _274
REMARK  116  A    between atoms: _276  and  _278
REMARK  117  A    between atoms: _278  and  _279
REMARK  118  A    between atoms: _278  and  _281
REMARK  119  A    between atoms: _281  and  _282
REMARK  120  A    between atoms: _285  and  _287
REMARK  121  A    between atoms: _287  and  _288
REMARK  122  A    between atoms: _287  and  _290
REMARK  123  A    between atoms: _290  and  _291
REMARK  124  A    between atoms: _294  and  _296
REMARK  125  A    between atoms: _296  and  _297
REMARK  126  A    between atoms: _296  and  _299
REMARK  127  A    between atoms: _299  and  _300
REMARK  128  A    between atoms: _303  and  _305
REMARK  129  A    between atoms: _305  and  _306
REMARK  130  A    between atoms: _305  and  _308
REMARK  131  A    between atoms: _308  and  _309
REMARK  132  A    between atoms: _312  and  _314
REMARK  133  A    between atoms: _314  and  _315
REMARK  134  A    between atoms: _314  and  _317
REMARK  135  A    between atoms: _317  and  _318
REMARK  136  A    between atoms: _321  and  _323
REMARK  137  A    between atoms: _323  and  _324
REMARK  138  A    between atoms: _323  and  _326
REMARK  139  A    between atoms: _326  and  _327
REMARK  140  A    between atoms: _330  and  _332
REMARK  141  A    between atoms: _332  and  _333
REMARK  142  A    between atoms: _332  and  _335
REMARK  143  A    between atoms: _335  and  _336
REMARK  144  A    between atoms: _338  and  _340
REMARK  145  A    between atoms: _340  and  _341
REMARK  146  A    between atoms: _340  and  _343
REMARK  147  A    between atoms: _343  and  _344
REMARK  148  A    between atoms: _349  and  _351
REMARK  149  A    between atoms: _351  and  _352
REMARK  150  A    between atoms: _355  and  _357
REMARK  151  A    between atoms: _357  and  _358
REMARK  152  A    between atoms: _360  and  _362
REMARK  153  A    between atoms: _362  and  _363
REMARK  154  A    between atoms: _365  and  _367
REMARK  155  A    between atoms: _367  and  _368
REMARK  156  A    between atoms: _367  and  _370
REMARK  157  A    between atoms: _370  and  _371
REMARK  158  A    between atoms: _376  and  _377
REMARK  159  A    between atoms: _379  and  _381
REMARK  160  A    between atoms: _381  and  _382
REMARK  161  A    between atoms: _381  and  _384
REMARK  162  A    between atoms: _384  and  _385
REMARK  163  A    between atoms: _390  and  _391
REMARK  164  A    between atoms: _393  and  _395
REMARK  165  A    between atoms: _395  and  _396
REMARK  166  A    between atoms: _395  and  _398
REMARK  167  A    between atoms: _398  and  _399
REMARK  168  A    between atoms: _401  and  _403
REMARK  169  A    between atoms: _403  and  _404
REMARK  170  A    between atoms: _403  and  _406
REMARK  171  A    between atoms: _406  and  _407
REMARK  172  A    between atoms: _410  and  _412
REMARK  173  A    between atoms: _412  and  _413
REMARK  174  A    between atoms: _415  and  _417
REMARK  175  A    between atoms: _417  and  _418
REMARK  176  A    between atoms: _420  and  _422
REMARK  177  A    between atoms: _422  and  _423
REMARK  178  A    between atoms: _422  and  _425
REMARK  179  A    between atoms: _425  and  _426
REMARK  180  A    between atoms: _429  and  _431
REMARK  181  A    between atoms: _431  and  _432
REMARK  182  A    between atoms: _431  and  _434
REMARK  183  A    between atoms: _434  and  _435
REMARK  184  A    between atoms: _435  and  _436
REMARK  185  A    between atoms: _441  and  _443
REMARK  186  A    between atoms: _443  and  _444
REMARK  187  A    between atoms: _443  and  _446
REMARK  188  A    between atoms: _446  and  _447
REMARK  189  A    between atoms: _449  and  _451
REMARK  190  A    between atoms: _451  and  _452
REMARK  191  A    between atoms: _451  and  _454
REMARK  192  A    between atoms: _454  and  _455
REMARK  193  A    between atoms: _460  and  _462
REMARK  194  A    between atoms: _462  and  _463
REMARK  195  A    between atoms: _462  and  _465
REMARK  196  A    between atoms: _465  and  _466
REMARK  197  A    between atoms: _468  and  _470
REMARK  198  A    between atoms: _470  and  _471
REMARK  199  A    between atoms: _473  and  _475
REMARK  200  A    between atoms: _475  and  _476
REMARK  201  A    between atoms: _475  and  _478
REMARK  202  A    between atoms: _478  and  _479
REMARK  203  A    between atoms: _482  and  _484
REMARK  204  A    between atoms: _484  and  _485
REMARK  205  A    between atoms: _484  and  _487
REMARK  206  A    between atoms: _487  and  _488
REMARK  207  A    between atoms: _494  and  _496
REMARK  208  A    between atoms: _496  and  _497
REMARK  209  A    between atoms: _496  and  _499
REMARK  210  A    between atoms: _499  and  _500
REMARK  211  A    between atoms: _502  and  _504
REMARK  212  A    between atoms: _504  and  _505
REMARK  213  A    between atoms: _504  and  _507
REMARK  214  A    between atoms: _507  and  _508
REMARK  215  A    between atoms: _511  and  _513
REMARK  216  A    between atoms: _513  and  _514
REMARK  217  A    between atoms: _516  and  _518
REMARK  218  A    between atoms: _518  and  _519
REMARK  219  A    between atoms: _518  and  _521
REMARK  220  A    between atoms: _521  and  _522
REMARK  221  A    between atoms: _525  and  _527
REMARK  222  A    between atoms: _527  and  _528
REMARK  223  A    between atoms: _527  and  _530
REMARK  224  A    between atoms: _530  and  _531
REMARK  225  A    between atoms: _533  and  _535
REMARK  226  A    between atoms: _535  and  _536
REMARK  227  A    between atoms: _538  and  _540
REMARK  228  A    between atoms: _540  and  _541
REMARK  229  A    between atoms: _540  and  _543
REMARK  230  A    between atoms: _543  and  _544
REMARK  231  A    between atoms: _549  and  _550
REMARK  232  A    between atoms: _552  and  _554
REMARK  233  A    between atoms: _554  and  _555
REMARK  234  A    between atoms: _554  and  _557
REMARK  235  A    between atoms: _557  and  _558
REMARK  236  A    between atoms: _561  and  _563
REMARK  237  A    between atoms: _563  and  _564
REMARK  238  A    between atoms: _563  and  _566
REMARK  239  A    between atoms: _566  and  _567
REMARK  240  A    between atoms: _567  and  _568
REMARK  241  A    between atoms: _574  and  _575
REMARK  242  A    between atoms: _580  and  _582
REMARK  243  A    between atoms: _582  and  _583
REMARK  244  A    between atoms: _582  and  _585
REMARK  245  A    between atoms: _585  and  _586
REMARK  246  A    between atoms: _586  and  _587
REMARK                            x       y       z     vdW  Elec       q    Type
REMARK                         _______ _______ _______ _____ _____    ______ ____
ROOT
ATOM      1  CA  SER A   2      13.824  17.943  25.941  0.00  0.00    +0.178 C 
ENDROOT
BRANCH   1   4
ATOM      2  C   PHE A   1      14.783  18.036  28.183  0.00  0.00    +0.239 C 
ATOM      3  O   PHE A   1      14.809  16.797  28.289  0.00  0.00    -0.274 OA
ATOM      4  N   SER A   2      14.309  18.668  27.114  0.00  0.00    -0.295 N 
ATOM      5  H   SER A   2      14.282  19.708  27.112  0.00  0.00    +0.150 HD
BRANCH   2   6
ATOM      6  CA  PHE A   1      15.171  18.917  29.355  0.00  0.00    +0.149 C 
BRANCH   6   7
ATOM      7  N   PHE A   1      15.138  18.100  30.564  0.00  0.00    -0.238 NA
ATOM      8  H   PHE A   1      15.278  17.072  30.487  0.00  0.00    +0.142 HD
ENDBRANCH   6   7
BRANCH   6   9
ATOM      9  CB  PHE A   1      16.499  19.685  29.138  0.00  0.00    +0.053 C 
BRANCH   9  10
ATOM     10  CG  PHE A   1      17.694  18.799  28.946  0.00  0.00    -0.020 A 
ATOM     11  CD2 PHE A   1      18.376  18.293  30.036  0.00  0.00    -0.004 A 
ATOM     12  CE2 PHE A   1      19.457  17.454  29.860  0.00  0.00    -0.000 A 
ATOM     13  CZ  PHE A   1      19.852  17.084  28.585  0.00  0.00    -0.000 A 
ATOM     14  CE1 PHE A   1      19.171  17.557  27.491  0.00  0.00    -0.000 A 
ATOM     15  CD1 PHE A   1      18.075  18.406  27.674  0.00  0.00    -0.004 A 
ENDBRANCH   9  10
ENDBRANCH   6   9
ENDBRANCH   2   6
ENDBRANCH   1   4
BRANCH   1  16
ATOM     16  C   SER A   2      14.870  17.753  24.853  0.00  0.00    +0.243 C 
ATOM     17  O   SER A   2      15.846  18.512  24.749  0.00  0.00    -0.273 OA
ATOM     18  N   ILE A   3      14.722  16.657  24.117  0.00  0.00    -0.298 N 
ATOM     19  H   ILE A   3      13.939  16.003  24.319  0.00  0.00    +0.150 HD
BRANCH  18  20
ATOM     20  CA  ILE A   3      15.641  16.364  23.036  0.00  0.00    +0.137 C 
BRANCH  20  21
ATOM     21  CB  ILE A   3      16.248  14.945  23.110  0.00  0.00    +0.026 C 
ATOM     22  CG2 ILE A   3      17.256  14.766  21.970  0.00  0.00    +0.002 C 
BRANCH  21  23
ATOM     23  CG1 ILE A   3      16.853  14.641  24.500  0.00  0.00    +0.002 C 
ATOM     24  CD1 ILE A   3      15.842  14.570  25.594  0.00  0.00    +0.000 C 
ENDBRANCH  21  23
ENDBRANCH  20  21
BRANCH  20  25
ATOM     25  C   ILE A   3      14.904  16.531  21.724  0.00  0.00    +0.227 C 
ATOM     26  O   ILE A   3      14.025  15.711  21.391  0.00  0.00    -0.286 OA
ENDBRANCH  20  25
ENDBRANCH  18  20
ENDBRANCH   1  16
BRANCH   1  27
ATOM     27  CB  SER A   2      12.535  18.556  25.384  0.00  0.00    +0.166 C 
BRANCH  27  28
ATOM     28  OG  SER A   2      11.529  18.435  26.380  0.00  0.00    -0.380 OA
ATOM     29  H   SER A   2      11.814  18.918  27.196  0.00  0.00    +0.211 HD
ENDBRANCH  27  28
ENDBRANCH   1  27
TORSDOF 12
REMARK  Name = ../refined-set-2016/2wec/2wec_pocket.pdb
REMARK  246 active torsions:
REMARK  status: ('A' for Active; 'I' for Inactive)
REMARK    1  A    between atoms: _1  and  _3
REMARK    2  A    between atoms: _3  and  _4
REMARK    3  A    between atoms: _3  and  _6
REMARK    4  A    between atoms: _6  and  _7
REMARK    5  A    between atoms: _10  and  _12
REMARK    6  A    between atoms: _12  and  _13
REMARK    7  A    between atoms: _12  and  _15
REMARK    8  A    between atoms: _15  and  _16
REMARK    9  A    between atoms: _19  and  _21
REMARK   10  A    between atoms: _21  and  _22
REMARK   11  A    between atoms: _21  and  _24
REMARK   12  A    between atoms: _24  and  _25
REMARK   13  A    between atoms: _25  and  _26
REMARK   14  A    between atoms: _29  and  _31
REMARK   15  A    between atoms: _31  and  _32
REMARK   16  A    between atoms: _31  and  _34
REMARK   17  A    between atoms: _34  and  _35
REMARK   18  A    between atoms: _35  and  _36
REMARK   19  A    between atoms: _39  and  _41
REMARK   20  A    between atoms: _41  and  _42
REMARK   21  A    between atoms: _41  and  _44
REMARK   22  A    between atoms: _44  and  _45
REMARK   23  A    between atoms: _50  and  _51
REMARK   24  A    between atoms: _53  and  _55
REMARK   25  A    between atoms: _55  and  _56
REMARK   26  A    between atoms: _55  and  _58
REMARK   27  A    between atoms: _58  and  _59
REMARK   28  A    between atoms: _64  and  _66
REMARK   29  A    between atoms: _66  and  _67
REMARK   30  A    between atoms: _66  and  _69
REMARK   31  A    between atoms: _69  and  _70
REMARK   32  A    between atoms: _73  and  _75
REMARK   33  A    between atoms: _75  and  _76
REMARK   34  A    between atoms: _75  and  _78
REMARK   35  A    between atoms: _78  and  _79
REMARK   36  A    between atoms: _82  and  _84
REMARK   37  A    between atoms: _84  and  _85
REMARK   38  A    between atoms: _87  and  _89
REMARK   39  A    between atoms: _89  and  _90
REMARK   40  A    between atoms: _89  and  _92
REMARK   41  A    between atoms: _92  and  _93
REMARK   42  A    between atoms: _95  and  _97
REMARK   43  A    between atoms: _97  and  _98
REMARK   44  A    between atoms: _97  and  _100
REMARK   45  A    between atoms: _100  and  _101
REMARK   46  A    between atoms: _104  and  _106
REMARK   47  A    between atoms: _106  and  _107
REMARK   48  A    between atoms: _106  and  _109
REMARK   49  A    between atoms: _109  and  _110
REMARK   50  A    between atoms: _112  and  _114
REMARK   51  A    between atoms: _114  and  _115
REMARK   52  A    between atoms: _114  and  _117
REMARK   53  A    between atoms: _117  and  _118
REMARK   54  A    between atoms: _123  and  _124
REMARK   55  A    between atoms: _126  and  _128
REMARK   56  A    between atoms: _128  and  _129
REMARK   57  A    between atoms: _131  and  _133
REMARK   58  A    between atoms: _133  and  _134
REMARK   59  A    between atoms: _133  and  _136
REMARK   60  A    between atoms: _136  and  _137
REMARK   61  A    between atoms: _140  and  _142
REMARK   62  A    between atoms: _142  and  _143
REMARK   63  A    between atoms: _145  and  _147
REMARK   64  A    between atoms: _147  and  _148
REMARK   65  A    between atoms: _147  and  _150
REMARK   66  A    between atoms: _150  and  _151
REMARK   67  A    between atoms: _153  and  _155
REMARK   68  A    between atoms: _155  and  _156
REMARK   69  A    between atoms: _155  and  _158
REMARK   70  A    between atoms: _158  and  _159
REMARK   71  A    between atoms: _159  and  _160
REMARK   72  A    between atoms: _165  and  _167
REMARK   73  A    between atoms: _167  and  _168
REMARK   74  A    between atoms: _167  and  _170
REMARK   75  A    between atoms: _170  and  _171
REMARK   76  A    between atoms: _177  and  _179
REMARK   77  A    between atoms: _179  and  _180
REMARK   78  A    between atoms: _179  and  _182
REMARK   79  A    between atoms: _182  and  _183
REMARK   80  A    between atoms: _186  and  _188
REMARK   81  A    between atoms: _188  and  _189
REMARK   82  A    between atoms: _188  and  _191
REMARK   83  A    between atoms: _191  and  _192
REMARK   84  A    between atoms: _197  and  _199
REMARK   85  A    between atoms: _199  and  _200
REMARK   86  A    between atoms: _199  and  _202
REMARK   87  A    between atoms: _202  and  _203
REMARK   88  A    between atoms: _208  and  _210
REMARK   89  A    between atoms: _210  and  _211
REMARK   90  A    between atoms: _210  and  _213
REMARK   91  A    between atoms: _213  and  _214
REMARK   92  A    between atoms: _217  and  _219
REMARK   93  A    between atoms: _219  and  _220
REMARK   94  A    between atoms: _223  and  _225
REMARK   95  A    between atoms: _225  and  _226
REMARK   96  A    between atoms: _225  and  _228
REMARK   97  A    between atoms: _228  and  _229
REMARK   98  A    between atoms: _232  and  _234
REMARK   99  A    between atoms: _234  and  _235
REMARK  100  A    between atoms: _234  and  _237
REMARK  101  A    between atoms: _237  and  _238
REMARK  102  A    between atoms: _244  and  _246
REMARK  103  A    between atoms: _246  and  _247
REMARK  104  A    between atoms: _246  and  _249
REMARK  105  A    between atoms: _249  and  _250
REMARK  106  A    between atoms: _253  and  _255
REMARK  107  A    between atoms: _255  and  _256
REMARK  108  A    between atoms: _255  and  _258
REMARK  109  A    between atoms: _258  and  _259
REMARK  110  A    between atoms: _262  and  _264
REMARK  111  A    between atoms: _264  and  _265
REMARK  112  A    between atoms: _264  and  _267
REMARK  113  A    between atoms: _267  and  _268
REMARK  114  A    between atoms: _271  and  _273
REMARK  115  A    between atoms: _273  and  _274
REMARK  116  A    between atoms: _276  and  _278
REMARK  117  A    between atoms: _278  and  _279
REMARK  118  A    between atoms: _278  and  _281
REMARK  119  A    between atoms: _281  and  _282
REMARK  120  A    between atoms: _285  and  _287
REMARK  121  A    between atoms: _287  and  _288
REMARK  122  A    between atoms: _287  and  _290
REMARK  123  A    between atoms: _290  and  _291
REMARK  124  A    between atoms: _294  and  _296
REMARK  125  A    between atoms: _296  and  _297
REMARK  126  A    between atoms: _296  and  _299
REMARK  127  A    between atoms: _299  and  _300
REMARK  128  A    between atoms: _303  and  _305
REMARK  129  A    between atoms: _305  and  _306
REMARK  130  A    between atoms: _305  and  _308
REMARK  131  A    between atoms: _308  and  _309
REMARK  132  A    between atoms: _312  and  _314
REMARK  133  A    between atoms: _314  and  _315
REMARK  134  A    between atoms: _314  and  _317
REMARK  135  A    between atoms: _317  and  _318
REMARK  136  A    between atoms: _321  and  _323
REMARK  137  A    between atoms: _323  and  _324
REMARK  138  A    between atoms: _323  and  _326
REMARK  139  A    between atoms: _326  and  _327
REMARK  140  A    between atoms: _330  and  _332
REMARK  141  A    between atoms: _332  and  _333
REMARK  142  A    between atoms: _332  and  _335
REMARK  143  A    between atoms: _335  and  _336
REMARK  144  A    between atoms: _338  and  _340
REMARK  145  A    between atoms: _340  and  _341
REMARK  146  A    between atoms: _340  and  _343
REMARK  147  A    between atoms: _343  and  _344
REMARK  148  A    between atoms: _349  and  _351
REMARK  149  A    between atoms: _351  and  _352
REMARK  150  A    between atoms: _355  and  _357
REMARK  151  A    between atoms: _357  and  _358
REMARK  152  A    between atoms: _360  and  _362
REMARK  153  A    between atoms: _362  and  _363
REMARK  154  A    between atoms: _365  and  _367
REMARK  155  A    between atoms: _367  and  _368
REMARK  156  A    between atoms: _367  and  _370
REMARK  157  A    between atoms: _370  and  _371
REMARK  158  A    between atoms: _376  and  _377
REMARK  159  A    between atoms: _379  and  _381
REMARK  160  A    between atoms: _381  and  _382
REMARK  161  A    between atoms: _381  and  _384
REMARK  162  A    between atoms: _384  and  _385
REMARK  163  A    between atoms: _390  and  _391
REMARK  164  A    between atoms: _393  and  _395
REMARK  165  A    between atoms: _395  and  _396
REMARK  166  A    between atoms: _395  and  _398
REMARK  167  A    between atoms: _398  and  _399
REMARK  168  A    between atoms: _401  and  _403
REMARK  169  A    between atoms: _403  and  _404
REMARK  170  A    between atoms: _403  and  _406
REMARK  171  A    between atoms: _406  and  _407
REMARK  172  A    between atoms: _410  and  _412
REMARK  173  A    between atoms: _412  and  _413
REMARK  174  A    between atoms: _415  and  _417
REMARK  175  A    between atoms: _417  and  _418
REMARK  176  A    between atoms: _420  and  _422
REMARK  177  A    between atoms: _422  and  _423
REMARK  178  A    between atoms: _422  and  _425
REMARK  179  A    between atoms: _425  and  _426
REMARK  180  A    between atoms: _429  and  _431
REMARK  181  A    between atoms: _431  and  _432
REMARK  182  A    between atoms: _431  and  _434
REMARK  183  A    between atoms: _434  and  _435
REMARK  184  A    between atoms: _435  and  _436
REMARK  185  A    between atoms: _441  and  _443
REMARK  186  A    between atoms: _443  and  _444
REMARK  187  A    between atoms: _443  and  _446
REMARK  188  A    between atoms: _446  and  _447
REMARK  189  A    between atoms: _449  and  _451
REMARK  190  A    between atoms: _451  and  _452
REMARK  191  A    between atoms: _451  and  _454
REMARK  192  A    between atoms: _454  and  _455
REMARK  193  A    between atoms: _460  and  _462
REMARK  194  A    between atoms: _462  and  _463
REMARK  195  A    between atoms: _462  and  _465
REMARK  196  A    between atoms: _465  and  _466
REMARK  197  A    between atoms: _468  and  _470
REMARK  198  A    between atoms: _470  and  _471
REMARK  199  A    between atoms: _473  and  _475
REMARK  200  A    between atoms: _475  and  _476
REMARK  201  A    between atoms: _475  and  _478
REMARK  202  A    between atoms: _478  and  _479
REMARK  203  A    between atoms: _482  and  _484
REMARK  204  A    between atoms: _484  and  _485
REMARK  205  A    between atoms: _484  and  _487
REMARK  206  A    between atoms: _487  and  _488
REMARK  207  A    between atoms: _494  and  _496
REMARK  208  A    between atoms: _496  and  _497
REMARK  209  A    between atoms: _496  and  _499
REMARK  210  A    between atoms: _499  and  _500
REMARK  211  A    between atoms: _502  and  _504
REMARK  212  A    between atoms: _504  and  _505
REMARK  213  A    between atoms: _504  and  _507
REMARK  214  A    between atoms: _507  and  _508
REMARK  215  A    between atoms: _511  and  _513
REMARK  216  A    between atoms: _513  and  _514
REMARK  217  A    between atoms: _516  and  _518
REMARK  218  A    between atoms: _518  and  _519
REMARK  219  A    between atoms: _518  and  _521
REMARK  220  A    between atoms: _521  and  _522
REMARK  221  A    between atoms: _525  and  _527
REMARK  222  A    between atoms: _527  and  _528
REMARK  223  A    between atoms: _527  and  _530
REMARK  224  A    between atoms: _530  and  _531
REMARK  225  A    between atoms: _533  and  _535
REMARK  226  A    between atoms: _535  and  _536
REMARK  227  A    between atoms: _538  and  _540
REMARK  228  A    between atoms: _540  and  _541
REMARK  229  A    between atoms: _540  and  _543
REMARK  230  A    between atoms: _543  and  _544
REMARK  231  A    between atoms: _549  and  _550
REMARK  232  A    between atoms: _552  and  _554
REMARK  233  A    between atoms: _554  and  _555
REMARK  234  A    between atoms: _554  and  _557
REMARK  235  A    between atoms: _557  and  _558
REMARK  236  A    between atoms: _561  and  _563
REMARK  237  A    between atoms: _563  and  _564
REMARK  238  A    between atoms: _563  and  _566
REMARK  239  A    between atoms: _566  and  _567
REMARK  240  A    between atoms: _567  and  _568
REMARK  241  A    between atoms: _574  and  _575
REMARK  242  A    between atoms: _580  and  _582
REMARK  243  A    between atoms: _582  and  _583
REMARK  244  A    between atoms: _582  and  _585
REMARK  245  A    between atoms: _585  and  _586
REMARK  246  A    between atoms: _586  and  _587
REMARK                            x       y       z     vdW  Elec       q    Type
REMARK                         _______ _______ _______ _____ _____    ______ ____
ROOT
ATOM      1  C   GLY A   1      15.109  14.919  16.149  0.00  0.00    +0.240 C 
ATOM      2  O   GLY A   1      14.430  15.854  15.729  0.00  0.00    -0.274 OA
ATOM      3  N   ASP A   2      15.473  13.903  15.387  0.00  0.00    -0.298 N 
ATOM      4  H   ASP A   2      15.986  13.103  15.810  0.00  0.00    +0.150 HD
ENDROOT
BRANCH   1   5
ATOM      5  CA  GLY A   1      15.601  14.846  17.577  0.00  0.00    +0.169 C 
BRANCH   5   6
ATOM      6  N   GLY A   1      14.995  15.796  18.489  0.00  0.00    -0.236 NA
ATOM      7  H   GLY A   1      14.200  15.463  19.071  0.00  0.00    +0.142 HD
ENDBRANCH   5   6
ENDBRANCH   1   5
BRANCH   3   8
ATOM      8  CA  ASP A   2      15.170  13.888  13.982  0.00  0.00    +0.148 C 
BRANCH   8   9
ATOM      9  C   ASP A   2      13.700  14.072  13.598  0.00  0.00    +0.227 C 
ATOM     10  O   ASP A   2      13.419  14.637  12.540  0.00  0.00    -0.286 OA
ENDBRANCH   8   9
BRANCH   8  11
ATOM     11  CB  ASP A   2      15.705  12.609  13.338  0.00  0.00    +0.142 C 
BRANCH  11  12
ATOM     12  CG  ASP A   2      17.174  12.453  13.529  0.00  0.00    +0.367 C 
ATOM     13  OD2 ASP A   2      17.884  13.458  13.751  0.00  0.00    -0.246 OA
ATOM     14  OD1 ASP A   2      17.629  11.297  13.470  0.00  0.00    -0.246 OA
ENDBRANCH  11  12
ENDBRANCH   8  11
ENDBRANCH   3   8
TORSDOF 6
REMARK  Name = ../refined-set-2016/2wec/2wec_pocket.pdb
REMARK  246 active torsions:
REMARK  status: ('A' for Active; 'I' for Inactive)
REMARK    1  A    between atoms: _1  and  _3
REMARK    2  A    between atoms: _3  and  _4
REMARK    3  A    between atoms: _3  and  _6
REMARK    4  A    between atoms: _6  and  _7
REMARK    5  A    between atoms: _10  and  _12
REMARK    6  A    between atoms: _12  and  _13
REMARK    7  A    between atoms: _12  and  _15
REMARK    8  A    between atoms: _15  and  _16
REMARK    9  A    between atoms: _19  and  _21
REMARK   10  A    between atoms: _21  and  _22
REMARK   11  A    between atoms: _21  and  _24
REMARK   12  A    between atoms: _24  and  _25
REMARK   13  A    between atoms: _25  and  _26
REMARK   14  A    between atoms: _29  and  _31
REMARK   15  A    between atoms: _31  and  _32
REMARK   16  A    between atoms: _31  and  _34
REMARK   17  A    between atoms: _34  and  _35
REMARK   18  A    between atoms: _35  and  _36
REMARK   19  A    between atoms: _39  and  _41
REMARK   20  A    between atoms: _41  and  _42
REMARK   21  A    between atoms: _41  and  _44
REMARK   22  A    between atoms: _44  and  _45
REMARK   23  A    between atoms: _50  and  _51
REMARK   24  A    between atoms: _53  and  _55
REMARK   25  A    between atoms: _55  and  _56
REMARK   26  A    between atoms: _55  and  _58
REMARK   27  A    between atoms: _58  and  _59
REMARK   28  A    between atoms: _64  and  _66
REMARK   29  A    between atoms: _66  and  _67
REMARK   30  A    between atoms: _66  and  _69
REMARK   31  A    between atoms: _69  and  _70
REMARK   32  A    between atoms: _73  and  _75
REMARK   33  A    between atoms: _75  and  _76
REMARK   34  A    between atoms: _75  and  _78
REMARK   35  A    between atoms: _78  and  _79
REMARK   36  A    between atoms: _82  and  _84
REMARK   37  A    between atoms: _84  and  _85
REMARK   38  A    between atoms: _87  and  _89
REMARK   39  A    between atoms: _89  and  _90
REMARK   40  A    between atoms: _89  and  _92
REMARK   41  A    between atoms: _92  and  _93
REMARK   42  A    between atoms: _95  and  _97
REMARK   43  A    between atoms: _97  and  _98
REMARK   44  A    between atoms: _97  and  _100
REMARK   45  A    between atoms: _100  and  _101
REMARK   46  A    between atoms: _104  and  _106
REMARK   47  A    between atoms: _106  and  _107
REMARK   48  A    between atoms: _106  and  _109
REMARK   49  A    between atoms: _109  and  _110
REMARK   50  A    between atoms: _112  and  _114
REMARK   51  A    between atoms: _114  and  _115
REMARK   52  A    between atoms: _114  and  _117
REMARK   53  A    between atoms: _117  and  _118
REMARK   54  A    between atoms: _123  and  _124
REMARK   55  A    between atoms: _126  and  _128
REMARK   56  A    between atoms: _128  and  _129
REMARK   57  A    between atoms: _131  and  _133
REMARK   58  A    between atoms: _133  and  _134
REMARK   59  A    between atoms: _133  and  _136
REMARK   60  A    between atoms: _136  and  _137
REMARK   61  A    between atoms: _140  and  _142
REMARK   62  A    between atoms: _142  and  _143
REMARK   63  A    between atoms: _145  and  _147
REMARK   64  A    between atoms: _147  and  _148
REMARK   65  A    between atoms: _147  and  _150
REMARK   66  A    between atoms: _150  and  _151
REMARK   67  A    between atoms: _153  and  _155
REMARK   68  A    between atoms: _155  and  _156
REMARK   69  A    between atoms: _155  and  _158
REMARK   70  A    between atoms: _158  and  _159
REMARK   71  A    between atoms: _159  and  _160
REMARK   72  A    between atoms: _165  and  _167
REMARK   73  A    between atoms: _167  and  _168
REMARK   74  A    between atoms: _167  and  _170
REMARK   75  A    between atoms: _170  and  _171
REMARK   76  A    between atoms: _177  and  _179
REMARK   77  A    between atoms: _179  and  _180
REMARK   78  A    between atoms: _179  and  _182
REMARK   79  A    between atoms: _182  and  _183
REMARK   80  A    between atoms: _186  and  _188
REMARK   81  A    between atoms: _188  and  _189
REMARK   82  A    between atoms: _188  and  _191
REMARK   83  A    between atoms: _191  and  _192
REMARK   84  A    between atoms: _197  and  _199
REMARK   85  A    between atoms: _199  and  _200
REMARK   86  A    between atoms: _199  and  _202
REMARK   87  A    between atoms: _202  and  _203
REMARK   88  A    between atoms: _208  and  _210
REMARK   89  A    between atoms: _210  and  _211
REMARK   90  A    between atoms: _210  and  _213
REMARK   91  A    between atoms: _213  and  _214
REMARK   92  A    between atoms: _217  and  _219
REMARK   93  A    between atoms: _219  and  _220
REMARK   94  A    between atoms: _223  and  _225
REMARK   95  A    between atoms: _225  and  _226
REMARK   96  A    between atoms: _225  and  _228
REMARK   97  A    between atoms: _228  and  _229
REMARK   98  A    between atoms: _232  and  _234
REMARK   99  A    between atoms: _234  and  _235
REMARK  100  A    between atoms: _234  and  _237
REMARK  101  A    between atoms: _237  and  _238
REMARK  102  A    between atoms: _244  and  _246
REMARK  103  A    between atoms: _246  and  _247
REMARK  104  A    between atoms: _246  and  _249
REMARK  105  A    between atoms: _249  and  _250
REMARK  106  A    between atoms: _253  and  _255
REMARK  107  A    between atoms: _255  and  _256
REMARK  108  A    between atoms: _255  and  _258
REMARK  109  A    between atoms: _258  and  _259
REMARK  110  A    between atoms: _262  and  _264
REMARK  111  A    between atoms: _264  and  _265
REMARK  112  A    between atoms: _264  and  _267
REMARK  113  A    between atoms: _267  and  _268
REMARK  114  A    between atoms: _271  and  _273
REMARK  115  A    between atoms: _273  and  _274
REMARK  116  A    between atoms: _276  and  _278
REMARK  117  A    between atoms: _278  and  _279
REMARK  118  A    between atoms: _278  and  _281
REMARK  119  A    between atoms: _281  and  _282
REMARK  120  A    between atoms: _285  and  _287
REMARK  121  A    between atoms: _287  and  _288
REMARK  122  A    between atoms: _287  and  _290
REMARK  123  A    between atoms: _290  and  _291
REMARK  124  A    between atoms: _294  and  _296
REMARK  125  A    between atoms: _296  and  _297
REMARK  126  A    between atoms: _296  and  _299
REMARK  127  A    between atoms: _299  and  _300
REMARK  128  A    between atoms: _303  and  _305
REMARK  129  A    between atoms: _305  and  _306
REMARK  130  A    between atoms: _305  and  _308
REMARK  131  A    between atoms: _308  and  _309
REMARK  132  A    between atoms: _312  and  _314
REMARK  133  A    between atoms: _314  and  _315
REMARK  134  A    between atoms: _314  and  _317
REMARK  135  A    between atoms: _317  and  _318
REMARK  136  A    between atoms: _321  and  _323
REMARK  137  A    between atoms: _323  and  _324
REMARK  138  A    between atoms: _323  and  _326
REMARK  139  A    between atoms: _326  and  _327
REMARK  140  A    between atoms: _330  and  _332
REMARK  141  A    between atoms: _332  and  _333
REMARK  142  A    between atoms: _332  and  _335
REMARK  143  A    between atoms: _335  and  _336
REMARK  144  A    between atoms: _338  and  _340
REMARK  145  A    between atoms: _340  and  _341
REMARK  146  A    between atoms: _340  and  _343
REMARK  147  A    between atoms: _343  and  _344
REMARK  148  A    between atoms: _349  and  _351
REMARK  149  A    between atoms: _351  and  _352
REMARK  150  A    between atoms: _355  and  _357
REMARK  151  A    between atoms: _357  and  _358
REMARK  152  A    between atoms: _360  and  _362
REMARK  153  A    between atoms: _362  and  _363
REMARK  154  A    between atoms: _365  and  _367
REMARK  155  A    between atoms: _367  and  _368
REMARK  156  A    between atoms: _367  and  _370
REMARK  157  A    between atoms: _370  and  _371
REMARK  158  A    between atoms: _376  and  _377
REMARK  159  A    between atoms: _379  and  _381
REMARK  160  A    between atoms: _381  and  _382
REMARK  161  A    between atoms: _381  and  _384
REMARK  162  A    between atoms: _384  and  _385
REMARK  163  A    between atoms: _390  and  _391
REMARK  164  A    between atoms: _393  and  _395
REMARK  165  A    between atoms: _395  and  _396
REMARK  166  A    between atoms: _395  and  _398
REMARK  167  A    between atoms: _398  and  _399
REMARK  168  A    between atoms: _401  and  _403
REMARK  169  A    between atoms: _403  and  _404
REMARK  170  A    between atoms: _403  and  _406
REMARK  171  A    between atoms: _406  and  _407
REMARK  172  A    between atoms: _410  and  _412
REMARK  173  A    between atoms: _412  and  _413
REMARK  174  A    between atoms: _415  and  _417
REMARK  175  A    between atoms: _417  and  _418
REMARK  176  A    between atoms: _420  and  _422
REMARK  177  A    between atoms: _422  and  _423
REMARK  178  A    between atoms: _422  and  _425
REMARK  179  A    between atoms: _425  and  _426
REMARK  180  A    between atoms: _429  and  _431
REMARK  181  A    between atoms: _431  and  _432
REMARK  182  A    between atoms: _431  and  _434
REMARK  183  A    between atoms: _434  and  _435
REMARK  184  A    between atoms: _435  and  _436
REMARK  185  A    between atoms: _441  and  _443
REMARK  186  A    between atoms: _443  and  _444
REMARK  187  A    between atoms: _443  and  _446
REMARK  188  A    between atoms: _446  and  _447
REMARK  189  A    between atoms: _449  and  _451
REMARK  190  A    between atoms: _451  and  _452
REMARK  191  A    between atoms: _451  and  _454
REMARK  192  A    between atoms: _454  and  _455
REMARK  193  A    between atoms: _460  and  _462
REMARK  194  A    between atoms: _462  and  _463
REMARK  195  A    between atoms: _462  and  _465
REMARK  196  A    between atoms: _465  and  _466
REMARK  197  A    between atoms: _468  and  _470
REMARK  198  A    between atoms: _470  and  _471
REMARK  199  A    between atoms: _473  and  _475
REMARK  200  A    between atoms: _475  and  _476
REMARK  201  A    between atoms: _475  and  _478
REMARK  202  A    between atoms: _478  and  _479
REMARK  203  A    between atoms: _482  and  _484
REMARK  204  A    between atoms: _484  and  _485
REMARK  205  A    between atoms: _484  and  _487
REMARK  206  A    between atoms: _487  and  _488
REMARK  207  A    between atoms: _494  and  _496
REMARK  208  A    between atoms: _496  and  _497
REMARK  209  A    between atoms: _496  and  _499
REMARK  210  A    between atoms: _499  and  _500
REMARK  211  A    between atoms: _502  and  _504
REMARK  212  A    between atoms: _504  and  _505
REMARK  213  A    between atoms: _504  and  _507
REMARK  214  A    between atoms: _507  and  _508
REMARK  215  A    between atoms: _511  and  _513
REMARK  216  A    between atoms: _513  and  _514
REMARK  217  A    between atoms: _516  and  _518
REMARK  218  A    between atoms: _518  and  _519
REMARK  219  A    between atoms: _518  and  _521
REMARK  220  A    between atoms: _521  and  _522
REMARK  221  A    between atoms: _525  and  _527
REMARK  222  A    between atoms: _527  and  _528
REMARK  223  A    between atoms: _527  and  _530
REMARK  224  A    between atoms: _530  and  _531
REMARK  225  A    between atoms: _533  and  _535
REMARK  226  A    between atoms: _535  and  _536
REMARK  227  A    between atoms: _538  and  _540
REMARK  228  A    between atoms: _540  and  _541
REMARK  229  A    between atoms: _540  and  _543
REMARK  230  A    between atoms: _543  and  _544
REMARK  231  A    between atoms: _549  and  _550
REMARK  232  A    between atoms: _552  and  _554
REMARK  233  A    between atoms: _554  and  _555
REMARK  234  A    between atoms: _554  and  _557
REMARK  235  A    between atoms: _557  and  _558
REMARK  236  A    between atoms: _561  and  _563
REMARK  237  A    between atoms: _563  and  _564
REMARK  238  A    between atoms: _563  and  _566
REMARK  239  A    between atoms: _566  and  _567
REMARK  240  A    between atoms: _567  and  _568
REMARK  241  A    between atoms: _574  and  _575
REMARK  242  A    between atoms: _580  and  _582
REMARK  243  A    between atoms: _582  and  _583
REMARK  244  A    between atoms: _582  and  _585
REMARK  245  A    between atoms: _585  and  _586
REMARK  246  A    between atoms: _586  and  _587
REMARK                            x       y       z     vdW  Elec       q    Type
REMARK                         _______ _______ _______ _____ _____    ______ ____
ROOT
ATOM      1  CA  TYR A   3      22.657  10.291  34.128  0.00  0.00    +0.153 C 
ENDROOT
BRANCH   1   3
ATOM      2  C   GLY A   2      20.733   9.492  32.909  0.00  0.00    +0.243 C 
ATOM      3  N   TYR A   3      21.285   9.777  34.077  0.00  0.00    -0.297 N 
ATOM      4  H   TYR A   3      20.747   9.637  34.956  0.00  0.00    +0.150 HD
ATOM      5  O   GLY A   2      21.351   9.611  31.838  0.00  0.00    -0.273 OA
BRANCH   2   6
ATOM      6  CA  GLY A   2      19.280   8.956  32.945  0.00  0.00    +0.176 C 
BRANCH   6   9
ATOM      7  C   SER A   1      18.151   9.746  34.953  0.00  0.00    +0.241 C 
ATOM      8  O   SER A   1      18.128  10.889  34.540  0.00  0.00    -0.274 OA
ATOM      9  N   GLY A   2      18.709   8.754  34.277  0.00  0.00    -0.295 N 
ATOM     10  H   GLY A   2      18.742   7.806  34.704  0.00  0.00    +0.150 HD
BRANCH   7  11
ATOM     11  CA  SER A   1      17.566   9.402  36.322  0.00  0.00    +0.174 C 
BRANCH  11  12
ATOM     12  N   SER A   1      17.956  10.347  37.369  0.00  0.00    -0.236 NA
ATOM     13  H   SER A   1      17.227  10.867  37.898  0.00  0.00    +0.142 HD
ENDBRANCH  11  12
BRANCH  11  14
ATOM     14  CB  SER A   1      16.034   9.293  36.252  0.00  0.00    +0.163 C 
BRANCH  14  15
ATOM     15  OG  SER A   1      15.652   8.355  35.259  0.00  0.00    -0.380 OA
ATOM     16  H   SER A   1      15.996   8.650  34.379  0.00  0.00    +0.211 HD
ENDBRANCH  14  15
ENDBRANCH  11  14
ENDBRANCH   7  11
ENDBRANCH   6   9
ENDBRANCH   2   6
ENDBRANCH   1   3
BRANCH   1  17
ATOM     17  C   TYR A   3      23.709   9.173  34.300  0.00  0.00    +0.241 C 
ATOM     18  O   TYR A   3      23.485   8.202  35.018  0.00  0.00    -0.273 OA
ATOM     19  N   THR A   4      24.849   9.331  33.653  0.00  0.00    -0.296 N 
ATOM     20  H   THR A   4      24.991  10.168  33.052  0.00  0.00    +0.150 HD
BRANCH  19  21
ATOM     21  CA  THR A   4      25.910   8.337  33.777  0.00  0.00    +0.164 C 
BRANCH  21  22
ATOM     22  C   THR A   4      27.232   9.080  33.838  0.00  0.00    +0.229 C 
ATOM     23  O   THR A   4      27.302  10.281  33.602  0.00  0.00    -0.286 OA
ENDBRANCH  21  22
BRANCH  21  24
ATOM     24  CB  THR A   4      25.985   7.434  32.534  0.00  0.00    +0.136 C 
ATOM     25  CG2 THR A   4      24.674   6.647  32.377  0.00  0.00    +0.034 C 
BRANCH  24  26
ATOM     26  OG1 THR A   4      26.253   8.236  31.364  0.00  0.00    -0.382 OA
ATOM     27  HG1 THR A   4      26.300   7.650  30.567  0.00  0.00    +0.210 HD
ENDBRANCH  24  26
ENDBRANCH  21  24
ENDBRANCH  19  21
ENDBRANCH   1  17
BRANCH   1  28
ATOM     28  CB  TYR A   3      22.774  11.316  35.248  0.00  0.00    +0.055 C 
BRANCH  28  29
ATOM     29  CG  TYR A   3      22.177  12.668  34.916  0.00  0.00    -0.020 A 
ATOM     30  CD2 TYR A   3      22.980  13.802  34.846  0.00  0.00    -0.001 A 
ATOM     31  CE2 TYR A   3      22.441  15.053  34.583  0.00  0.00    +0.036 A 
ATOM     32  CZ  TYR A   3      21.078  15.168  34.395  0.00  0.00    +0.134 A 
ATOM     33  CE1 TYR A   3      20.265  14.046  34.483  0.00  0.00    +0.036 A 
ATOM     34  CD1 TYR A   3      20.817  12.817  34.745  0.00  0.00    -0.001 A 
BRANCH  32  35
ATOM     35  OH  TYR A   3      20.544  16.409  34.107  0.00  0.00    -0.506 OA
ATOM     36  HH  TYR A   3      19.563  16.328  34.001  0.00  0.00    +0.292 HD
ENDBRANCH  32  35
ENDBRANCH  28  29
ENDBRANCH   1  28
TORSDOF 15
REMARK  Name = ../refined-set-2016/2wec/2wec_pocket.pdb
REMARK  246 active torsions:
REMARK  status: ('A' for Active; 'I' for Inactive)
REMARK    1  A    between atoms: _1  and  _3
REMARK    2  A    between atoms: _3  and  _4
REMARK    3  A    between atoms: _3  and  _6
REMARK    4  A    between atoms: _6  and  _7
REMARK    5  A    between atoms: _10  and  _12
REMARK    6  A    between atoms: _12  and  _13
REMARK    7  A    between atoms: _12  and  _15
REMARK    8  A    between atoms: _15  and  _16
REMARK    9  A    between atoms: _19  and  _21
REMARK   10  A    between atoms: _21  and  _22
REMARK   11  A    between atoms: _21  and  _24
REMARK   12  A    between atoms: _24  and  _25
REMARK   13  A    between atoms: _25  and  _26
REMARK   14  A    between atoms: _29  and  _31
REMARK   15  A    between atoms: _31  and  _32
REMARK   16  A    between atoms: _31  and  _34
REMARK   17  A    between atoms: _34  and  _35
REMARK   18  A    between atoms: _35  and  _36
REMARK   19  A    between atoms: _39  and  _41
REMARK   20  A    between atoms: _41  and  _42
REMARK   21  A    between atoms: _41  and  _44
REMARK   22  A    between atoms: _44  and  _45
REMARK   23  A    between atoms: _50  and  _51
REMARK   24  A    between atoms: _53  and  _55
REMARK   25  A    between atoms: _55  and  _56
REMARK   26  A    between atoms: _55  and  _58
REMARK   27  A    between atoms: _58  and  _59
REMARK   28  A    between atoms: _64  and  _66
REMARK   29  A    between atoms: _66  and  _67
REMARK   30  A    between atoms: _66  and  _69
REMARK   31  A    between atoms: _69  and  _70
REMARK   32  A    between atoms: _73  and  _75
REMARK   33  A    between atoms: _75  and  _76
REMARK   34  A    between atoms: _75  and  _78
REMARK   35  A    between atoms: _78  and  _79
REMARK   36  A    between atoms: _82  and  _84
REMARK   37  A    between atoms: _84  and  _85
REMARK   38  A    between atoms: _87  and  _89
REMARK   39  A    between atoms: _89  and  _90
REMARK   40  A    between atoms: _89  and  _92
REMARK   41  A    between atoms: _92  and  _93
REMARK   42  A    between atoms: _95  and  _97
REMARK   43  A    between atoms: _97  and  _98
REMARK   44  A    between atoms: _97  and  _100
REMARK   45  A    between atoms: _100  and  _101
REMARK   46  A    between atoms: _104  and  _106
REMARK   47  A    between atoms: _106  and  _107
REMARK   48  A    between atoms: _106  and  _109
REMARK   49  A    between atoms: _109  and  _110
REMARK   50  A    between atoms: _112  and  _114
REMARK   51  A    between atoms: _114  and  _115
REMARK   52  A    between atoms: _114  and  _117
REMARK   53  A    between atoms: _117  and  _118
REMARK   54  A    between atoms: _123  and  _124
REMARK   55  A    between atoms: _126  and  _128
REMARK   56  A    between atoms: _128  and  _129
REMARK   57  A    between atoms: _131  and  _133
REMARK   58  A    between atoms: _133  and  _134
REMARK   59  A    between atoms: _133  and  _136
REMARK   60  A    between atoms: _136  and  _137
REMARK   61  A    between atoms: _140  and  _142
REMARK   62  A    between atoms: _142  and  _143
REMARK   63  A    between atoms: _145  and  _147
REMARK   64  A    between atoms: _147  and  _148
REMARK   65  A    between atoms: _147  and  _150
REMARK   66  A    between atoms: _150  and  _151
REMARK   67  A    between atoms: _153  and  _155
REMARK   68  A    between atoms: _155  and  _156
REMARK   69  A    between atoms: _155  and  _158
REMARK   70  A    between atoms: _158  and  _159
REMARK   71  A    between atoms: _159  and  _160
REMARK   72  A    between atoms: _165  and  _167
REMARK   73  A    between atoms: _167  and  _168
REMARK   74  A    between atoms: _167  and  _170
REMARK   75  A    between atoms: _170  and  _171
REMARK   76  A    between atoms: _177  and  _179
REMARK   77  A    between atoms: _179  and  _180
REMARK   78  A    between atoms: _179  and  _182
REMARK   79  A    between atoms: _182  and  _183
REMARK   80  A    between atoms: _186  and  _188
REMARK   81  A    between atoms: _188  and  _189
REMARK   82  A    between atoms: _188  and  _191
REMARK   83  A    between atoms: _191  and  _192
REMARK   84  A    between atoms: _197  and  _199
REMARK   85  A    between atoms: _199  and  _200
REMARK   86  A    between atoms: _199  and  _202
REMARK   87  A    between atoms: _202  and  _203
REMARK   88  A    between atoms: _208  and  _210
REMARK   89  A    between atoms: _210  and  _211
REMARK   90  A    between atoms: _210  and  _213
REMARK   91  A    between atoms: _213  and  _214
REMARK   92  A    between atoms: _217  and  _219
REMARK   93  A    between atoms: _219  and  _220
REMARK   94  A    between atoms: _223  and  _225
REMARK   95  A    between atoms: _225  and  _226
REMARK   96  A    between atoms: _225  and  _228
REMARK   97  A    between atoms: _228  and  _229
REMARK   98  A    between atoms: _232  and  _234
REMARK   99  A    between atoms: _234  and  _235
REMARK  100  A    between atoms: _234  and  _237
REMARK  101  A    between atoms: _237  and  _238
REMARK  102  A    between atoms: _244  and  _246
REMARK  103  A    between atoms: _246  and  _247
REMARK  104  A    between atoms: _246  and  _249
REMARK  105  A    between atoms: _249  and  _250
REMARK  106  A    between atoms: _253  and  _255
REMARK  107  A    between atoms: _255  and  _256
REMARK  108  A    between atoms: _255  and  _258
REMARK  109  A    between atoms: _258  and  _259
REMARK  110  A    between atoms: _262  and  _264
REMARK  111  A    between atoms: _264  and  _265
REMARK  112  A    between atoms: _264  and  _267
REMARK  113  A    between atoms: _267  and  _268
REMARK  114  A    between atoms: _271  and  _273
REMARK  115  A    between atoms: _273  and  _274
REMARK  116  A    between atoms: _276  and  _278
REMARK  117  A    between atoms: _278  and  _279
REMARK  118  A    between atoms: _278  and  _281
REMARK  119  A    between atoms: _281  and  _282
REMARK  120  A    between atoms: _285  and  _287
REMARK  121  A    between atoms: _287  and  _288
REMARK  122  A    between atoms: _287  and  _290
REMARK  123  A    between atoms: _290  and  _291
REMARK  124  A    between atoms: _294  and  _296
REMARK  125  A    between atoms: _296  and  _297
REMARK  126  A    between atoms: _296  and  _299
REMARK  127  A    between atoms: _299  and  _300
REMARK  128  A    between atoms: _303  and  _305
REMARK  129  A    between atoms: _305  and  _306
REMARK  130  A    between atoms: _305  and  _308
REMARK  131  A    between atoms: _308  and  _309
REMARK  132  A    between atoms: _312  and  _314
REMARK  133  A    between atoms: _314  and  _315
REMARK  134  A    between atoms: _314  and  _317
REMARK  135  A    between atoms: _317  and  _318
REMARK  136  A    between atoms: _321  and  _323
REMARK  137  A    between atoms: _323  and  _324
REMARK  138  A    between atoms: _323  and  _326
REMARK  139  A    between atoms: _326  and  _327
REMARK  140  A    between atoms: _330  and  _332
REMARK  141  A    between atoms: _332  and  _333
REMARK  142  A    between atoms: _332  and  _335
REMARK  143  A    between atoms: _335  and  _336
REMARK  144  A    between atoms: _338  and  _340
REMARK  145  A    between atoms: _340  and  _341
REMARK  146  A    between atoms: _340  and  _343
REMARK  147  A    between atoms: _343  and  _344
REMARK  148  A    between atoms: _349  and  _351
REMARK  149  A    between atoms: _351  and  _352
REMARK  150  A    between atoms: _355  and  _357
REMARK  151  A    between atoms: _357  and  _358
REMARK  152  A    between atoms: _360  and  _362
REMARK  153  A    between atoms: _362  and  _363
REMARK  154  A    between atoms: _365  and  _367
REMARK  155  A    between atoms: _367  and  _368
REMARK  156  A    between atoms: _367  and  _370
REMARK  157  A    between atoms: _370  and  _371
REMARK  158  A    between atoms: _376  and  _377
REMARK  159  A    between atoms: _379  and  _381
REMARK  160  A    between atoms: _381  and  _382
REMARK  161  A    between atoms: _381  and  _384
REMARK  162  A    between atoms: _384  and  _385
REMARK  163  A    between atoms: _390  and  _391
REMARK  164  A    between atoms: _393  and  _395
REMARK  165  A    between atoms: _395  and  _396
REMARK  166  A    between atoms: _395  and  _398
REMARK  167  A    between atoms: _398  and  _399
REMARK  168  A    between atoms: _401  and  _403
REMARK  169  A    between atoms: _403  and  _404
REMARK  170  A    between atoms: _403  and  _406
REMARK  171  A    between atoms: _406  and  _407
REMARK  172  A    between atoms: _410  and  _412
REMARK  173  A    between atoms: _412  and  _413
REMARK  174  A    between atoms: _415  and  _417
REMARK  175  A    between atoms: _417  and  _418
REMARK  176  A    between atoms: _420  and  _422
REMARK  177  A    between atoms: _422  and  _423
REMARK  178  A    between atoms: _422  and  _425
REMARK  179  A    between atoms: _425  and  _426
REMARK  180  A    between atoms: _429  and  _431
REMARK  181  A    between atoms: _431  and  _432
REMARK  182  A    between atoms: _431  and  _434
REMARK  183  A    between atoms: _434  and  _435
REMARK  184  A    between atoms: _435  and  _436
REMARK  185  A    between atoms: _441  and  _443
REMARK  186  A    between atoms: _443  and  _444
REMARK  187  A    between atoms: _443  and  _446
REMARK  188  A    between atoms: _446  and  _447
REMARK  189  A    between atoms: _449  and  _451
REMARK  190  A    between atoms: _451  and  _452
REMARK  191  A    between atoms: _451  and  _454
REMARK  192  A    between atoms: _454  and  _455
REMARK  193  A    between atoms: _460  and  _462
REMARK  194  A    between atoms: _462  and  _463
REMARK  195  A    between atoms: _462  and  _465
REMARK  196  A    between atoms: _465  and  _466
REMARK  197  A    between atoms: _468  and  _470
REMARK  198  A    between atoms: _470  and  _471
REMARK  199  A    between atoms: _473  and  _475
REMARK  200  A    between atoms: _475  and  _476
REMARK  201  A    between atoms: _475  and  _478
REMARK  202  A    between atoms: _478  and  _479
REMARK  203  A    between atoms: _482  and  _484
REMARK  204  A    between atoms: _484  and  _485
REMARK  205  A    between atoms: _484  and  _487
REMARK  206  A    between atoms: _487  and  _488
REMARK  207  A    between atoms: _494  and  _496
REMARK  208  A    between atoms: _496  and  _497
REMARK  209  A    between atoms: _496  and  _499
REMARK  210  A    between atoms: _499  and  _500
REMARK  211  A    between atoms: _502  and  _504
REMARK  212  A    between atoms: _504  and  _505
REMARK  213  A    between atoms: _504  and  _507
REMARK  214  A    between atoms: _507  and  _508
REMARK  215  A    between atoms: _511  and  _513
REMARK  216  A    between atoms: _513  and  _514
REMARK  217  A    between atoms: _516  and  _518
REMARK  218  A    between atoms: _518  and  _519
REMARK  219  A    between atoms: _518  and  _521
REMARK  220  A    between atoms: _521  and  _522
REMARK  221  A    between atoms: _525  and  _527
REMARK  222  A    between atoms: _527  and  _528
REMARK  223  A    between atoms: _527  and  _530
REMARK  224  A    between atoms: _530  and  _531
REMARK  225  A    between atoms: _533  and  _535
REMARK  226  A    between atoms: _535  and  _536
REMARK  227  A    between atoms: _538  and  _540
REMARK  228  A    between atoms: _540  and  _541
REMARK  229  A    between atoms: _540  and  _543
REMARK  230  A    between atoms: _543  and  _544
REMARK  231  A    between atoms: _549  and  _550
REMARK  232  A    between atoms: _552  and  _554
REMARK  233  A    between atoms: _554  and  _555
REMARK  234  A    between atoms: _554  and  _557
REMARK  235  A    between atoms: _557  and  _558
REMARK  236  A    between atoms: _561  and  _563
REMARK  237  A    between atoms: _563  and  _564
REMARK  238  A    between atoms: _563  and  _566
REMARK  239  A    between atoms: _566  and  _567
REMARK  240  A    between atoms: _567  and  _568
REMARK  241  A    between atoms: _574  and  _575
REMARK  242  A    between atoms: _580  and  _582
REMARK  243  A    between atoms: _582  and  _583
REMARK  244  A    between atoms: _582  and  _585
REMARK  245  A    between atoms: _585  and  _586
REMARK  246  A    between atoms: _586  and  _587
REMARK                            x       y       z     vdW  Elec       q    Type
REMARK                         _______ _______ _______ _____ _____    ______ ____
ROOT
ATOM      1  C   GLN A   1      24.921  12.813  31.689  0.00  0.00    +0.241 C 
ATOM      2  O   GLN A   1      24.675  11.937  32.500  0.00  0.00    -0.273 OA
ATOM      3  N   PRO A   2      23.954  13.556  31.144  0.00  0.00    -0.272 N 
ATOM      4  CD  PRO A   2      22.544  13.154  31.266  0.00  0.00    +0.094 C 
ATOM      5  CG  PRO A   2      21.834  14.287  30.523  0.00  0.00    +0.024 C 
ATOM      6  CB  PRO A   2      22.790  14.670  29.434  0.00  0.00    +0.031 C 
ATOM      7  CA  PRO A   2      24.163  14.567  30.094  0.00  0.00    +0.152 C 
ENDROOT
BRANCH   7   8
ATOM      8  C   PRO A   2      24.579  15.948  30.525  0.00  0.00    +0.241 C 
ATOM      9  N   GLN A   3      24.479  16.244  31.823  0.00  0.00    -0.298 N 
ATOM     10  H   GLN A   3      24.093  15.537  32.480  0.00  0.00    +0.150 HD
ATOM     11  O   PRO A   2      24.933  16.755  29.661  0.00  0.00    -0.273 OA
BRANCH   9  12
ATOM     12  CA  GLN A   3      24.901  17.539  32.333  0.00  0.00    +0.137 C 
BRANCH  12  13
ATOM     13  C   GLN A   3      25.956  17.261  33.409  0.00  0.00    +0.227 C 
ATOM     14  O   GLN A   3      25.738  16.444  34.305  0.00  0.00    -0.286 OA
ENDBRANCH  12  13
BRANCH  12  15
ATOM     15  CB  GLN A   3      23.724  18.292  32.923  0.00  0.00    +0.037 C 
BRANCH  15  16
ATOM     16  CG  GLN A   3      22.683  18.571  31.858  0.00  0.00    +0.087 C 
BRANCH  16  17
ATOM     17  CD  GLN A   3      21.596  19.502  32.337  0.00  0.00    +0.219 C 
ATOM     18  NE2 GLN A   3      21.069  19.250  33.525  0.00  0.00    -0.329 N 
ATOM     19 HE21 GLN A   3      21.415  18.446  34.087  0.00  0.00    +0.145 HD
ATOM     20 HE22 GLN A   3      20.309  19.856  33.896  0.00  0.00    +0.145 HD
ATOM     21  OE1 GLN A   3      21.227  20.436  31.631  0.00  0.00    -0.275 OA
ENDBRANCH  16  17
ENDBRANCH  15  16
ENDBRANCH  12  15
ENDBRANCH   9  12
ENDBRANCH   7   8
BRANCH   1  22
ATOM     22  CA  GLN A   1      26.369  13.026  31.229  0.00  0.00    +0.145 C 
BRANCH  22  23
ATOM     23  N   GLN A   1      27.221  12.844  32.425  0.00  0.00    -0.238 NA
ATOM     24  H   GLN A   1      27.192  11.908  32.878  0.00  0.00    +0.142 HD
ENDBRANCH  22  23
BRANCH  22  25
ATOM     25  CB  GLN A   1      26.634  11.892  30.238  0.00  0.00    +0.036 C 
BRANCH  25  26
ATOM     26  CG  GLN A   1      27.992  11.848  29.645  0.00  0.00    +0.087 C 
BRANCH  26  27
ATOM     27  CD  GLN A   1      28.143  12.897  28.600  0.00  0.00    +0.219 C 
ATOM     28  OE1 GLN A   1      27.442  13.905  28.640  0.00  0.00    -0.275 OA
ATOM     29  NE2 GLN A   1      28.922  12.602  27.563  0.00  0.00    -0.329 N 
ATOM     30 HE21 GLN A   1      29.498  11.736  27.575  0.00  0.00    +0.145 HD
ATOM     31 HE22 GLN A   1      28.955  13.237  26.740  0.00  0.00    +0.145 HD
ENDBRANCH  26  27
ENDBRANCH  25  26
ENDBRANCH  22  25
ENDBRANCH   1  22
TORSDOF 11
REMARK  Name = ../refined-set-2016/2wec/2wec_pocket.pdb
REMARK  246 active torsions:
REMARK  status: ('A' for Active; 'I' for Inactive)
REMARK    1  A    between atoms: _1  and  _3
REMARK    2  A    between atoms: _3  and  _4
REMARK    3  A    between atoms: _3  and  _6
REMARK    4  A    between atoms: _6  and  _7
REMARK    5  A    between atoms: _10  and  _12
REMARK    6  A    between atoms: _12  and  _13
REMARK    7  A    between atoms: _12  and  _15
REMARK    8  A    between atoms: _15  and  _16
REMARK    9  A    between atoms: _19  and  _21
REMARK   10  A    between atoms: _21  and  _22
REMARK   11  A    between atoms: _21  and  _24
REMARK   12  A    between atoms: _24  and  _25
REMARK   13  A    between atoms: _25  and  _26
REMARK   14  A    between atoms: _29  and  _31
REMARK   15  A    between atoms: _31  and  _32
REMARK   16  A    between atoms: _31  and  _34
REMARK   17  A    between atoms: _34  and  _35
REMARK   18  A    between atoms: _35  and  _36
REMARK   19  A    between atoms: _39  and  _41
REMARK   20  A    between atoms: _41  and  _42
REMARK   21  A    between atoms: _41  and  _44
REMARK   22  A    between atoms: _44  and  _45
REMARK   23  A    between atoms: _50  and  _51
REMARK   24  A    between atoms: _53  and  _55
REMARK   25  A    between atoms: _55  and  _56
REMARK   26  A    between atoms: _55  and  _58
REMARK   27  A    between atoms: _58  and  _59
REMARK   28  A    between atoms: _64  and  _66
REMARK   29  A    between atoms: _66  and  _67
REMARK   30  A    between atoms: _66  and  _69
REMARK   31  A    between atoms: _69  and  _70
REMARK   32  A    between atoms: _73  and  _75
REMARK   33  A    between atoms: _75  and  _76
REMARK   34  A    between atoms: _75  and  _78
REMARK   35  A    between atoms: _78  and  _79
REMARK   36  A    between atoms: _82  and  _84
REMARK   37  A    between atoms: _84  and  _85
REMARK   38  A    between atoms: _87  and  _89
REMARK   39  A    between atoms: _89  and  _90
REMARK   40  A    between atoms: _89  and  _92
REMARK   41  A    between atoms: _92  and  _93
REMARK   42  A    between atoms: _95  and  _97
REMARK   43  A    between atoms: _97  and  _98
REMARK   44  A    between atoms: _97  and  _100
REMARK   45  A    between atoms: _100  and  _101
REMARK   46  A    between atoms: _104  and  _106
REMARK   47  A    between atoms: _106  and  _107
REMARK   48  A    between atoms: _106  and  _109
REMARK   49  A    between atoms: _109  and  _110
REMARK   50  A    between atoms: _112  and  _114
REMARK   51  A    between atoms: _114  and  _115
REMARK   52  A    between atoms: _114  and  _117
REMARK   53  A    between atoms: _117  and  _118
REMARK   54  A    between atoms: _123  and  _124
REMARK   55  A    between atoms: _126  and  _128
REMARK   56  A    between atoms: _128  and  _129
REMARK   57  A    between atoms: _131  and  _133
REMARK   58  A    between atoms: _133  and  _134
REMARK   59  A    between atoms: _133  and  _136
REMARK   60  A    between atoms: _136  and  _137
REMARK   61  A    between atoms: _140  and  _142
REMARK   62  A    between atoms: _142  and  _143
REMARK   63  A    between atoms: _145  and  _147
REMARK   64  A    between atoms: _147  and  _148
REMARK   65  A    between atoms: _147  and  _150
REMARK   66  A    between atoms: _150  and  _151
REMARK   67  A    between atoms: _153  and  _155
REMARK   68  A    between atoms: _155  and  _156
REMARK   69  A    between atoms: _155  and  _158
REMARK   70  A    between atoms: _158  and  _159
REMARK   71  A    between atoms: _159  and  _160
REMARK   72  A    between atoms: _165  and  _167
REMARK   73  A    between atoms: _167  and  _168
REMARK   74  A    between atoms: _167  and  _170
REMARK   75  A    between atoms: _170  and  _171
REMARK   76  A    between atoms: _177  and  _179
REMARK   77  A    between atoms: _179  and  _180
REMARK   78  A    between atoms: _179  and  _182
REMARK   79  A    between atoms: _182  and  _183
REMARK   80  A    between atoms: _186  and  _188
REMARK   81  A    between atoms: _188  and  _189
REMARK   82  A    between atoms: _188  and  _191
REMARK   83  A    between atoms: _191  and  _192
REMARK   84  A    between atoms: _197  and  _199
REMARK   85  A    between atoms: _199  and  _200
REMARK   86  A    between atoms: _199  and  _202
REMARK   87  A    between atoms: _202  and  _203
REMARK   88  A    between atoms: _208  and  _210
REMARK   89  A    between atoms: _210  and  _211
REMARK   90  A    between atoms: _210  and  _213
REMARK   91  A    between atoms: _213  and  _214
REMARK   92  A    between atoms: _217  and  _219
REMARK   93  A    between atoms: _219  and  _220
REMARK   94  A    between atoms: _223  and  _225
REMARK   95  A    between atoms: _225  and  _226
REMARK   96  A    between atoms: _225  and  _228
REMARK   97  A    between atoms: _228  and  _229
REMARK   98  A    between atoms: _232  and  _234
REMARK   99  A    between atoms: _234  and  _235
REMARK  100  A    between atoms: _234  and  _237
REMARK  101  A    between atoms: _237  and  _238
REMARK  102  A    between atoms: _244  and  _246
REMARK  103  A    between atoms: _246  and  _247
REMARK  104  A    between atoms: _246  and  _249
REMARK  105  A    between atoms: _249  and  _250
REMARK  106  A    between atoms: _253  and  _255
REMARK  107  A    between atoms: _255  and  _256
REMARK  108  A    between atoms: _255  and  _258
REMARK  109  A    between atoms: _258  and  _259
REMARK  110  A    between atoms: _262  and  _264
REMARK  111  A    between atoms: _264  and  _265
REMARK  112  A    between atoms: _264  and  _267
REMARK  113  A    between atoms: _267  and  _268
REMARK  114  A    between atoms: _271  and  _273
REMARK  115  A    between atoms: _273  and  _274
REMARK  116  A    between atoms: _276  and  _278
REMARK  117  A    between atoms: _278  and  _279
REMARK  118  A    between atoms: _278  and  _281
REMARK  119  A    between atoms: _281  and  _282
REMARK  120  A    between atoms: _285  and  _287
REMARK  121  A    between atoms: _287  and  _288
REMARK  122  A    between atoms: _287  and  _290
REMARK  123  A    between atoms: _290  and  _291
REMARK  124  A    between atoms: _294  and  _296
REMARK  125  A    between atoms: _296  and  _297
REMARK  126  A    between atoms: _296  and  _299
REMARK  127  A    between atoms: _299  and  _300
REMARK  128  A    between atoms: _303  and  _305
REMARK  129  A    between atoms: _305  and  _306
REMARK  130  A    between atoms: _305  and  _308
REMARK  131  A    between atoms: _308  and  _309
REMARK  132  A    between atoms: _312  and  _314
REMARK  133  A    between atoms: _314  and  _315
REMARK  134  A    between atoms: _314  and  _317
REMARK  135  A    between atoms: _317  and  _318
REMARK  136  A    between atoms: _321  and  _323
REMARK  137  A    between atoms: _323  and  _324
REMARK  138  A    between atoms: _323  and  _326
REMARK  139  A    between atoms: _326  and  _327
REMARK  140  A    between atoms: _330  and  _332
REMARK  141  A    between atoms: _332  and  _333
REMARK  142  A    between atoms: _332  and  _335
REMARK  143  A    between atoms: _335  and  _336
REMARK  144  A    between atoms: _338  and  _340
REMARK  145  A    between atoms: _340  and  _341
REMARK  146  A    between atoms: _340  and  _343
REMARK  147  A    between atoms: _343  and  _344
REMARK  148  A    between atoms: _349  and  _351
REMARK  149  A    between atoms: _351  and  _352
REMARK  150  A    between atoms: _355  and  _357
REMARK  151  A    between atoms: _357  and  _358
REMARK  152  A    between atoms: _360  and  _362
REMARK  153  A    between atoms: _362  and  _363
REMARK  154  A    between atoms: _365  and  _367
REMARK  155  A    between atoms: _367  and  _368
REMARK  156  A    between atoms: _367  and  _370
REMARK  157  A    between atoms: _370  and  _371
REMARK  158  A    between atoms: _376  and  _377
REMARK  159  A    between atoms: _379  and  _381
REMARK  160  A    between atoms: _381  and  _382
REMARK  161  A    between atoms: _381  and  _384
REMARK  162  A    between atoms: _384  and  _385
REMARK  163  A    between atoms: _390  and  _391
REMARK  164  A    between atoms: _393  and  _395
REMARK  165  A    between atoms: _395  and  _396
REMARK  166  A    between atoms: _395  and  _398
REMARK  167  A    between atoms: _398  and  _399
REMARK  168  A    between atoms: _401  and  _403
REMARK  169  A    between atoms: _403  and  _404
REMARK  170  A    between atoms: _403  and  _406
REMARK  171  A    between atoms: _406  and  _407
REMARK  172  A    between atoms: _410  and  _412
REMARK  173  A    between atoms: _412  and  _413
REMARK  174  A    between atoms: _415  and  _417
REMARK  175  A    between atoms: _417  and  _418
REMARK  176  A    between atoms: _420  and  _422
REMARK  177  A    between atoms: _422  and  _423
REMARK  178  A    between atoms: _422  and  _425
REMARK  179  A    between atoms: _425  and  _426
REMARK  180  A    between atoms: _429  and  _431
REMARK  181  A    between atoms: _431  and  _432
REMARK  182  A    between atoms: _431  and  _434
REMARK  183  A    between atoms: _434  and  _435
REMARK  184  A    between atoms: _435  and  _436
REMARK  185  A    between atoms: _441  and  _443
REMARK  186  A    between atoms: _443  and  _444
REMARK  187  A    between atoms: _443  and  _446
REMARK  188  A    between atoms: _446  and  _447
REMARK  189  A    between atoms: _449  and  _451
REMARK  190  A    between atoms: _451  and  _452
REMARK  191  A    between atoms: _451  and  _454
REMARK  192  A    between atoms: _454  and  _455
REMARK  193  A    between atoms: _460  and  _462
REMARK  194  A    between atoms: _462  and  _463
REMARK  195  A    between atoms: _462  and  _465
REMARK  196  A    between atoms: _465  and  _466
REMARK  197  A    between atoms: _468  and  _470
REMARK  198  A    between atoms: _470  and  _471
REMARK  199  A    between atoms: _473  and  _475
REMARK  200  A    between atoms: _475  and  _476
REMARK  201  A    between atoms: _475  and  _478
REMARK  202  A    between atoms: _478  and  _479
REMARK  203  A    between atoms: _482  and  _484
REMARK  204  A    between atoms: _484  and  _485
REMARK  205  A    between atoms: _484  and  _487
REMARK  206  A    between atoms: _487  and  _488
REMARK  207  A    between atoms: _494  and  _496
REMARK  208  A    between atoms: _496  and  _497
REMARK  209  A    between atoms: _496  and  _499
REMARK  210  A    between atoms: _499  and  _500
REMARK  211  A    between atoms: _502  and  _504
REMARK  212  A    between atoms: _504  and  _505
REMARK  213  A    between atoms: _504  and  _507
REMARK  214  A    between atoms: _507  and  _508
REMARK  215  A    between atoms: _511  and  _513
REMARK  216  A    between atoms: _513  and  _514
REMARK  217  A    between atoms: _516  and  _518
REMARK  218  A    between atoms: _518  and  _519
REMARK  219  A    between atoms: _518  and  _521
REMARK  220  A    between atoms: _521  and  _522
REMARK  221  A    between atoms: _525  and  _527
REMARK  222  A    between atoms: _527  and  _528
REMARK  223  A    between atoms: _527  and  _530
REMARK  224  A    between atoms: _530  and  _531
REMARK  225  A    between atoms: _533  and  _535
REMARK  226  A    between atoms: _535  and  _536
REMARK  227  A    between atoms: _538  and  _540
REMARK  228  A    between atoms: _540  and  _541
REMARK  229  A    between atoms: _540  and  _543
REMARK  230  A    between atoms: _543  and  _544
REMARK  231  A    between atoms: _549  and  _550
REMARK  232  A    between atoms: _552  and  _554
REMARK  233  A    between atoms: _554  and  _555
REMARK  234  A    between atoms: _554  and  _557
REMARK  235  A    between atoms: _557  and  _558
REMARK  236  A    between atoms: _561  and  _563
REMARK  237  A    between atoms: _563  and  _564
REMARK  238  A    between atoms: _563  and  _566
REMARK  239  A    between atoms: _566  and  _567
REMARK  240  A    between atoms: _567  and  _568
REMARK  241  A    between atoms: _574  and  _575
REMARK  242  A    between atoms: _580  and  _582
REMARK  243  A    between atoms: _582  and  _583
REMARK  244  A    between atoms: _582  and  _585
REMARK  245  A    between atoms: _585  and  _586
REMARK  246  A    between atoms: _586  and  _587
REMARK                            x       y       z     vdW  Elec       q    Type
REMARK                         _______ _______ _______ _____ _____    ______ ____
ROOT
ATOM      1  O   HOH     1      22.890  19.954  20.814  0.00  0.00    +0.000 OA
ENDROOT
TORSDOF 0
REMARK  Name = ../refined-set-2016/2wec/2wec_pocket.pdb
REMARK  246 active torsions:
REMARK  status: ('A' for Active; 'I' for Inactive)
REMARK    1  A    between atoms: _1  and  _3
REMARK    2  A    between atoms: _3  and  _4
REMARK    3  A    between atoms: _3  and  _6
REMARK    4  A    between atoms: _6  and  _7
REMARK    5  A    between atoms: _10  and  _12
REMARK    6  A    between atoms: _12  and  _13
REMARK    7  A    between atoms: _12  and  _15
REMARK    8  A    between atoms: _15  and  _16
REMARK    9  A    between atoms: _19  and  _21
REMARK   10  A    between atoms: _21  and  _22
REMARK   11  A    between atoms: _21  and  _24
REMARK   12  A    between atoms: _24  and  _25
REMARK   13  A    between atoms: _25  and  _26
REMARK   14  A    between atoms: _29  and  _31
REMARK   15  A    between atoms: _31  and  _32
REMARK   16  A    between atoms: _31  and  _34
REMARK   17  A    between atoms: _34  and  _35
REMARK   18  A    between atoms: _35  and  _36
REMARK   19  A    between atoms: _39  and  _41
REMARK   20  A    between atoms: _41  and  _42
REMARK   21  A    between atoms: _41  and  _44
REMARK   22  A    between atoms: _44  and  _45
REMARK   23  A    between atoms: _50  and  _51
REMARK   24  A    between atoms: _53  and  _55
REMARK   25  A    between atoms: _55  and  _56
REMARK   26  A    between atoms: _55  and  _58
REMARK   27  A    between atoms: _58  and  _59
REMARK   28  A    between atoms: _64  and  _66
REMARK   29  A    between atoms: _66  and  _67
REMARK   30  A    between atoms: _66  and  _69
REMARK   31  A    between atoms: _69  and  _70
REMARK   32  A    between atoms: _73  and  _75
REMARK   33  A    between atoms: _75  and  _76
REMARK   34  A    between atoms: _75  and  _78
REMARK   35  A    between atoms: _78  and  _79
REMARK   36  A    between atoms: _82  and  _84
REMARK   37  A    between atoms: _84  and  _85
REMARK   38  A    between atoms: _87  and  _89
REMARK   39  A    between atoms: _89  and  _90
REMARK   40  A    between atoms: _89  and  _92
REMARK   41  A    between atoms: _92  and  _93
REMARK   42  A    between atoms: _95  and  _97
REMARK   43  A    between atoms: _97  and  _98
REMARK   44  A    between atoms: _97  and  _100
REMARK   45  A    between atoms: _100  and  _101
REMARK   46  A    between atoms: _104  and  _106
REMARK   47  A    between atoms: _106  and  _107
REMARK   48  A    between atoms: _106  and  _109
REMARK   49  A    between atoms: _109  and  _110
REMARK   50  A    between atoms: _112  and  _114
REMARK   51  A    between atoms: _114  and  _115
REMARK   52  A    between atoms: _114  and  _117
REMARK   53  A    between atoms: _117  and  _118
REMARK   54  A    between atoms: _123  and  _124
REMARK   55  A    between atoms: _126  and  _128
REMARK   56  A    between atoms: _128  and  _129
REMARK   57  A    between atoms: _131  and  _133
REMARK   58  A    between atoms: _133  and  _134
REMARK   59  A    between atoms: _133  and  _136
REMARK   60  A    between atoms: _136  and  _137
REMARK   61  A    between atoms: _140  and  _142
REMARK   62  A    between atoms: _142  and  _143
REMARK   63  A    between atoms: _145  and  _147
REMARK   64  A    between atoms: _147  and  _148
REMARK   65  A    between atoms: _147  and  _150
REMARK   66  A    between atoms: _150  and  _151
REMARK   67  A    between atoms: _153  and  _155
REMARK   68  A    between atoms: _155  and  _156
REMARK   69  A    between atoms: _155  and  _158
REMARK   70  A    between atoms: _158  and  _159
REMARK   71  A    between atoms: _159  and  _160
REMARK   72  A    between atoms: _165  and  _167
REMARK   73  A    between atoms: _167  and  _168
REMARK   74  A    between atoms: _167  and  _170
REMARK   75  A    between atoms: _170  and  _171
REMARK   76  A    between atoms: _177  and  _179
REMARK   77  A    between atoms: _179  and  _180
REMARK   78  A    between atoms: _179  and  _182
REMARK   79  A    between atoms: _182  and  _183
REMARK   80  A    between atoms: _186  and  _188
REMARK   81  A    between atoms: _188  and  _189
REMARK   82  A    between atoms: _188  and  _191
REMARK   83  A    between atoms: _191  and  _192
REMARK   84  A    between atoms: _197  and  _199
REMARK   85  A    between atoms: _199  and  _200
REMARK   86  A    between atoms: _199  and  _202
REMARK   87  A    between atoms: _202  and  _203
REMARK   88  A    between atoms: _208  and  _210
REMARK   89  A    between atoms: _210  and  _211
REMARK   90  A    between atoms: _210  and  _213
REMARK   91  A    between atoms: _213  and  _214
REMARK   92  A    between atoms: _217  and  _219
REMARK   93  A    between atoms: _219  and  _220
REMARK   94  A    between atoms: _223  and  _225
REMARK   95  A    between atoms: _225  and  _226
REMARK   96  A    between atoms: _225  and  _228
REMARK   97  A    between atoms: _228  and  _229
REMARK   98  A    between atoms: _232  and  _234
REMARK   99  A    between atoms: _234  and  _235
REMARK  100  A    between atoms: _234  and  _237
REMARK  101  A    between atoms: _237  and  _238
REMARK  102  A    between atoms: _244  and  _246
REMARK  103  A    between atoms: _246  and  _247
REMARK  104  A    between atoms: _246  and  _249
REMARK  105  A    between atoms: _249  and  _250
REMARK  106  A    between atoms: _253  and  _255
REMARK  107  A    between atoms: _255  and  _256
REMARK  108  A    between atoms: _255  and  _258
REMARK  109  A    between atoms: _258  and  _259
REMARK  110  A    between atoms: _262  and  _264
REMARK  111  A    between atoms: _264  and  _265
REMARK  112  A    between atoms: _264  and  _267
REMARK  113  A    between atoms: _267  and  _268
REMARK  114  A    between atoms: _271  and  _273
REMARK  115  A    between atoms: _273  and  _274
REMARK  116  A    between atoms: _276  and  _278
REMARK  117  A    between atoms: _278  and  _279
REMARK  118  A    between atoms: _278  and  _281
REMARK  119  A    between atoms: _281  and  _282
REMARK  120  A    between atoms: _285  and  _287
REMARK  121  A    between atoms: _287  and  _288
REMARK  122  A    between atoms: _287  and  _290
REMARK  123  A    between atoms: _290  and  _291
REMARK  124  A    between atoms: _294  and  _296
REMARK  125  A    between atoms: _296  and  _297
REMARK  126  A    between atoms: _296  and  _299
REMARK  127  A    between atoms: _299  and  _300
REMARK  128  A    between atoms: _303  and  _305
REMARK  129  A    between atoms: _305  and  _306
REMARK  130  A    between atoms: _305  and  _308
REMARK  131  A    between atoms: _308  and  _309
REMARK  132  A    between atoms: _312  and  _314
REMARK  133  A    between atoms: _314  and  _315
REMARK  134  A    between atoms: _314  and  _317
REMARK  135  A    between atoms: _317  and  _318
REMARK  136  A    between atoms: _321  and  _323
REMARK  137  A    between atoms: _323  and  _324
REMARK  138  A    between atoms: _323  and  _326
REMARK  139  A    between atoms: _326  and  _327
REMARK  140  A    between atoms: _330  and  _332
REMARK  141  A    between atoms: _332  and  _333
REMARK  142  A    between atoms: _332  and  _335
REMARK  143  A    between atoms: _335  and  _336
REMARK  144  A    between atoms: _338  and  _340
REMARK  145  A    between atoms: _340  and  _341
REMARK  146  A    between atoms: _340  and  _343
REMARK  147  A    between atoms: _343  and  _344
REMARK  148  A    between atoms: _349  and  _351
REMARK  149  A    between atoms: _351  and  _352
REMARK  150  A    between atoms: _355  and  _357
REMARK  151  A    between atoms: _357  and  _358
REMARK  152  A    between atoms: _360  and  _362
REMARK  153  A    between atoms: _362  and  _363
REMARK  154  A    between atoms: _365  and  _367
REMARK  155  A    between atoms: _367  and  _368
REMARK  156  A    between atoms: _367  and  _370
REMARK  157  A    between atoms: _370  and  _371
REMARK  158  A    between atoms: _376  and  _377
REMARK  159  A    between atoms: _379  and  _381
REMARK  160  A    between atoms: _381  and  _382
REMARK  161  A    between atoms: _381  and  _384
REMARK  162  A    between atoms: _384  and  _385
REMARK  163  A    between atoms: _390  and  _391
REMARK  164  A    between atoms: _393  and  _395
REMARK  165  A    between atoms: _395  and  _396
REMARK  166  A    between atoms: _395  and  _398
REMARK  167  A    between atoms: _398  and  _399
REMARK  168  A    between atoms: _401  and  _403
REMARK  169  A    between atoms: _403  and  _404
REMARK  170  A    between atoms: _403  and  _406
REMARK  171  A    between atoms: _406  and  _407
REMARK  172  A    between atoms: _410  and  _412
REMARK  173  A    between atoms: _412  and  _413
REMARK  174  A    between atoms: _415  and  _417
REMARK  175  A    between atoms: _417  and  _418
REMARK  176  A    between atoms: _420  and  _422
REMARK  177  A    between atoms: _422  and  _423
REMARK  178  A    between atoms: _422  and  _425
REMARK  179  A    between atoms: _425  and  _426
REMARK  180  A    between atoms: _429  and  _431
REMARK  181  A    between atoms: _431  and  _432
REMARK  182  A    between atoms: _431  and  _434
REMARK  183  A    between atoms: _434  and  _435
REMARK  184  A    between atoms: _435  and  _436
REMARK  185  A    between atoms: _441  and  _443
REMARK  186  A    between atoms: _443  and  _444
REMARK  187  A    between atoms: _443  and  _446
REMARK  188  A    between atoms: _446  and  _447
REMARK  189  A    between atoms: _449  and  _451
REMARK  190  A    between atoms: _451  and  _452
REMARK  191  A    between atoms: _451  and  _454
REMARK  192  A    between atoms: _454  and  _455
REMARK  193  A    between atoms: _460  and  _462
REMARK  194  A    between atoms: _462  and  _463
REMARK  195  A    between atoms: _462  and  _465
REMARK  196  A    between atoms: _465  and  _466
REMARK  197  A    between atoms: _468  and  _470
REMARK  198  A    between atoms: _470  and  _471
REMARK  199  A    between atoms: _473  and  _475
REMARK  200  A    between atoms: _475  and  _476
REMARK  201  A    between atoms: _475  and  _478
REMARK  202  A    between atoms: _478  and  _479
REMARK  203  A    between atoms: _482  and  _484
REMARK  204  A    between atoms: _484  and  _485
REMARK  205  A    between atoms: _484  and  _487
REMARK  206  A    between atoms: _487  and  _488
REMARK  207  A    between atoms: _494  and  _496
REMARK  208  A    between atoms: _496  and  _497
REMARK  209  A    between atoms: _496  and  _499
REMARK  210  A    between atoms: _499  and  _500
REMARK  211  A    between atoms: _502  and  _504
REMARK  212  A    between atoms: _504  and  _505
REMARK  213  A    between atoms: _504  and  _507
REMARK  214  A    between atoms: _507  and  _508
REMARK  215  A    between atoms: _511  and  _513
REMARK  216  A    between atoms: _513  and  _514
REMARK  217  A    between atoms: _516  and  _518
REMARK  218  A    between atoms: _518  and  _519
REMARK  219  A    between atoms: _518  and  _521
REMARK  220  A    between atoms: _521  and  _522
REMARK  221  A    between atoms: _525  and  _527
REMARK  222  A    between atoms: _527  and  _528
REMARK  223  A    between atoms: _527  and  _530
REMARK  224  A    between atoms: _530  and  _531
REMARK  225  A    between atoms: _533  and  _535
REMARK  226  A    between atoms: _535  and  _536
REMARK  227  A    between atoms: _538  and  _540
REMARK  228  A    between atoms: _540  and  _541
REMARK  229  A    between atoms: _540  and  _543
REMARK  230  A    between atoms: _543  and  _544
REMARK  231  A    between atoms: _549  and  _550
REMARK  232  A    between atoms: _552  and  _554
REMARK  233  A    between atoms: _554  and  _555
REMARK  234  A    between atoms: _554  and  _557
REMARK  235  A    between atoms: _557  and  _558
REMARK  236  A    between atoms: _561  and  _563
REMARK  237  A    between atoms: _563  and  _564
REMARK  238  A    between atoms: _563  and  _566
REMARK  239  A    between atoms: _566  and  _567
REMARK  240  A    between atoms: _567  and  _568
REMARK  241  A    between atoms: _574  and  _575
REMARK  242  A    between atoms: _580  and  _582
REMARK  243  A    between atoms: _582  and  _583
REMARK  244  A    between atoms: _582  and  _585
REMARK  245  A    between atoms: _585  and  _586
REMARK  246  A    between atoms: _586  and  _587
REMARK                            x       y       z     vdW  Elec       q    Type
REMARK                         _______ _______ _______ _____ _____    ______ ____
ROOT
ATOM      1  O   HOH     1      13.525   9.778  12.658  0.00  0.00    +0.000 OA
ENDROOT
TORSDOF 0
REMARK  Name = ../refined-set-2016/2wec/2wec_pocket.pdb
REMARK  246 active torsions:
REMARK  status: ('A' for Active; 'I' for Inactive)
REMARK    1  A    between atoms: _1  and  _3
REMARK    2  A    between atoms: _3  and  _4
REMARK    3  A    between atoms: _3  and  _6
REMARK    4  A    between atoms: _6  and  _7
REMARK    5  A    between atoms: _10  and  _12
REMARK    6  A    between atoms: _12  and  _13
REMARK    7  A    between atoms: _12  and  _15
REMARK    8  A    between atoms: _15  and  _16
REMARK    9  A    between atoms: _19  and  _21
REMARK   10  A    between atoms: _21  and  _22
REMARK   11  A    between atoms: _21  and  _24
REMARK   12  A    between atoms: _24  and  _25
REMARK   13  A    between atoms: _25  and  _26
REMARK   14  A    between atoms: _29  and  _31
REMARK   15  A    between atoms: _31  and  _32
REMARK   16  A    between atoms: _31  and  _34
REMARK   17  A    between atoms: _34  and  _35
REMARK   18  A    between atoms: _35  and  _36
REMARK   19  A    between atoms: _39  and  _41
REMARK   20  A    between atoms: _41  and  _42
REMARK   21  A    between atoms: _41  and  _44
REMARK   22  A    between atoms: _44  and  _45
REMARK   23  A    between atoms: _50  and  _51
REMARK   24  A    between atoms: _53  and  _55
REMARK   25  A    between atoms: _55  and  _56
REMARK   26  A    between atoms: _55  and  _58
REMARK   27  A    between atoms: _58  and  _59
REMARK   28  A    between atoms: _64  and  _66
REMARK   29  A    between atoms: _66  and  _67
REMARK   30  A    between atoms: _66  and  _69
REMARK   31  A    between atoms: _69  and  _70
REMARK   32  A    between atoms: _73  and  _75
REMARK   33  A    between atoms: _75  and  _76
REMARK   34  A    between atoms: _75  and  _78
REMARK   35  A    between atoms: _78  and  _79
REMARK   36  A    between atoms: _82  and  _84
REMARK   37  A    between atoms: _84  and  _85
REMARK   38  A    between atoms: _87  and  _89
REMARK   39  A    between atoms: _89  and  _90
REMARK   40  A    between atoms: _89  and  _92
REMARK   41  A    between atoms: _92  and  _93
REMARK   42  A    between atoms: _95  and  _97
REMARK   43  A    between atoms: _97  and  _98
REMARK   44  A    between atoms: _97  and  _100
REMARK   45  A    between atoms: _100  and  _101
REMARK   46  A    between atoms: _104  and  _106
REMARK   47  A    between atoms: _106  and  _107
REMARK   48  A    between atoms: _106  and  _109
REMARK   49  A    between atoms: _109  and  _110
REMARK   50  A    between atoms: _112  and  _114
REMARK   51  A    between atoms: _114  and  _115
REMARK   52  A    between atoms: _114  and  _117
REMARK   53  A    between atoms: _117  and  _118
REMARK   54  A    between atoms: _123  and  _124
REMARK   55  A    between atoms: _126  and  _128
REMARK   56  A    between atoms: _128  and  _129
REMARK   57  A    between atoms: _131  and  _133
REMARK   58  A    between atoms: _133  and  _134
REMARK   59  A    between atoms: _133  and  _136
REMARK   60  A    between atoms: _136  and  _137
REMARK   61  A    between atoms: _140  and  _142
REMARK   62  A    between atoms: _142  and  _143
REMARK   63  A    between atoms: _145  and  _147
REMARK   64  A    between atoms: _147  and  _148
REMARK   65  A    between atoms: _147  and  _150
REMARK   66  A    between atoms: _150  and  _151
REMARK   67  A    between atoms: _153  and  _155
REMARK   68  A    between atoms: _155  and  _156
REMARK   69  A    between atoms: _155  and  _158
REMARK   70  A    between atoms: _158  and  _159
REMARK   71  A    between atoms: _159  and  _160
REMARK   72  A    between atoms: _165  and  _167
REMARK   73  A    between atoms: _167  and  _168
REMARK   74  A    between atoms: _167  and  _170
REMARK   75  A    between atoms: _170  and  _171
REMARK   76  A    between atoms: _177  and  _179
REMARK   77  A    between atoms: _179  and  _180
REMARK   78  A    between atoms: _179  and  _182
REMARK   79  A    between atoms: _182  and  _183
REMARK   80  A    between atoms: _186  and  _188
REMARK   81  A    between atoms: _188  and  _189
REMARK   82  A    between atoms: _188  and  _191
REMARK   83  A    between atoms: _191  and  _192
REMARK   84  A    between atoms: _197  and  _199
REMARK   85  A    between atoms: _199  and  _200
REMARK   86  A    between atoms: _199  and  _202
REMARK   87  A    between atoms: _202  and  _203
REMARK   88  A    between atoms: _208  and  _210
REMARK   89  A    between atoms: _210  and  _211
REMARK   90  A    between atoms: _210  and  _213
REMARK   91  A    between atoms: _213  and  _214
REMARK   92  A    between atoms: _217  and  _219
REMARK   93  A    between atoms: _219  and  _220
REMARK   94  A    between atoms: _223  and  _225
REMARK   95  A    between atoms: _225  and  _226
REMARK   96  A    between atoms: _225  and  _228
REMARK   97  A    between atoms: _228  and  _229
REMARK   98  A    between atoms: _232  and  _234
REMARK   99  A    between atoms: _234  and  _235
REMARK  100  A    between atoms: _234  and  _237
REMARK  101  A    between atoms: _237  and  _238
REMARK  102  A    between atoms: _244  and  _246
REMARK  103  A    between atoms: _246  and  _247
REMARK  104  A    between atoms: _246  and  _249
REMARK  105  A    between atoms: _249  and  _250
REMARK  106  A    between atoms: _253  and  _255
REMARK  107  A    between atoms: _255  and  _256
REMARK  108  A    between atoms: _255  and  _258
REMARK  109  A    between atoms: _258  and  _259
REMARK  110  A    between atoms: _262  and  _264
REMARK  111  A    between atoms: _264  and  _265
REMARK  112  A    between atoms: _264  and  _267
REMARK  113  A    between atoms: _267  and  _268
REMARK  114  A    between atoms: _271  and  _273
REMARK  115  A    between atoms: _273  and  _274
REMARK  116  A    between atoms: _276  and  _278
REMARK  117  A    between atoms: _278  and  _279
REMARK  118  A    between atoms: _278  and  _281
REMARK  119  A    between atoms: _281  and  _282
REMARK  120  A    between atoms: _285  and  _287
REMARK  121  A    between atoms: _287  and  _288
REMARK  122  A    between atoms: _287  and  _290
REMARK  123  A    between atoms: _290  and  _291
REMARK  124  A    between atoms: _294  and  _296
REMARK  125  A    between atoms: _296  and  _297
REMARK  126  A    between atoms: _296  and  _299
REMARK  127  A    between atoms: _299  and  _300
REMARK  128  A    between atoms: _303  and  _305
REMARK  129  A    between atoms: _305  and  _306
REMARK  130  A    between atoms: _305  and  _308
REMARK  131  A    between atoms: _308  and  _309
REMARK  132  A    between atoms: _312  and  _314
REMARK  133  A    between atoms: _314  and  _315
REMARK  134  A    between atoms: _314  and  _317
REMARK  135  A    between atoms: _317  and  _318
REMARK  136  A    between atoms: _321  and  _323
REMARK  137  A    between atoms: _323  and  _324
REMARK  138  A    between atoms: _323  and  _326
REMARK  139  A    between atoms: _326  and  _327
REMARK  140  A    between atoms: _330  and  _332
REMARK  141  A    between atoms: _332  and  _333
REMARK  142  A    between atoms: _332  and  _335
REMARK  143  A    between atoms: _335  and  _336
REMARK  144  A    between atoms: _338  and  _340
REMARK  145  A    between atoms: _340  and  _341
REMARK  146  A    between atoms: _340  and  _343
REMARK  147  A    between atoms: _343  and  _344
REMARK  148  A    between atoms: _349  and  _351
REMARK  149  A    between atoms: _351  and  _352
REMARK  150  A    between atoms: _355  and  _357
REMARK  151  A    between atoms: _357  and  _358
REMARK  152  A    between atoms: _360  and  _362
REMARK  153  A    between atoms: _362  and  _363
REMARK  154  A    between atoms: _365  and  _367
REMARK  155  A    between atoms: _367  and  _368
REMARK  156  A    between atoms: _367  and  _370
REMARK  157  A    between atoms: _370  and  _371
REMARK  158  A    between atoms: _376  and  _377
REMARK  159  A    between atoms: _379  and  _381
REMARK  160  A    between atoms: _381  and  _382
REMARK  161  A    between atoms: _381  and  _384
REMARK  162  A    between atoms: _384  and  _385
REMARK  163  A    between atoms: _390  and  _391
REMARK  164  A    between atoms: _393  and  _395
REMARK  165  A    between atoms: _395  and  _396
REMARK  166  A    between atoms: _395  and  _398
REMARK  167  A    between atoms: _398  and  _399
REMARK  168  A    between atoms: _401  and  _403
REMARK  169  A    between atoms: _403  and  _404
REMARK  170  A    between atoms: _403  and  _406
REMARK  171  A    between atoms: _406  and  _407
REMARK  172  A    between atoms: _410  and  _412
REMARK  173  A    between atoms: _412  and  _413
REMARK  174  A    between atoms: _415  and  _417
REMARK  175  A    between atoms: _417  and  _418
REMARK  176  A    between atoms: _420  and  _422
REMARK  177  A    between atoms: _422  and  _423
REMARK  178  A    between atoms: _422  and  _425
REMARK  179  A    between atoms: _425  and  _426
REMARK  180  A    between atoms: _429  and  _431
REMARK  181  A    between atoms: _431  and  _432
REMARK  182  A    between atoms: _431  and  _434
REMARK  183  A    between atoms: _434  and  _435
REMARK  184  A    between atoms: _435  and  _436
REMARK  185  A    between atoms: _441  and  _443
REMARK  186  A    between atoms: _443  and  _444
REMARK  187  A    between atoms: _443  and  _446
REMARK  188  A    between atoms: _446  and  _447
REMARK  189  A    between atoms: _449  and  _451
REMARK  190  A    between atoms: _451  and  _452
REMARK  191  A    between atoms: _451  and  _454
REMARK  192  A    between atoms: _454  and  _455
REMARK  193  A    between atoms: _460  and  _462
REMARK  194  A    between atoms: _462  and  _463
REMARK  195  A    between atoms: _462  and  _465
REMARK  196  A    between atoms: _465  and  _466
REMARK  197  A    between atoms: _468  and  _470
REMARK  198  A    between atoms: _470  and  _471
REMARK  199  A    between atoms: _473  and  _475
REMARK  200  A    between atoms: _475  and  _476
REMARK  201  A    between atoms: _475  and  _478
REMARK  202  A    between atoms: _478  and  _479
REMARK  203  A    between atoms: _482  and  _484
REMARK  204  A    between atoms: _484  and  _485
REMARK  205  A    between atoms: _484  and  _487
REMARK  206  A    between atoms: _487  and  _488
REMARK  207  A    between atoms: _494  and  _496
REMARK  208  A    between atoms: _496  and  _497
REMARK  209  A    between atoms: _496  and  _499
REMARK  210  A    between atoms: _499  and  _500
REMARK  211  A    between atoms: _502  and  _504
REMARK  212  A    between atoms: _504  and  _505
REMARK  213  A    between atoms: _504  and  _507
REMARK  214  A    between atoms: _507  and  _508
REMARK  215  A    between atoms: _511  and  _513
REMARK  216  A    between atoms: _513  and  _514
REMARK  217  A    between atoms: _516  and  _518
REMARK  218  A    between atoms: _518  and  _519
REMARK  219  A    between atoms: _518  and  _521
REMARK  220  A    between atoms: _521  and  _522
REMARK  221  A    between atoms: _525  and  _527
REMARK  222  A    between atoms: _527  and  _528
REMARK  223  A    between atoms: _527  and  _530
REMARK  224  A    between atoms: _530  and  _531
REMARK  225  A    between atoms: _533  and  _535
REMARK  226  A    between atoms: _535  and  _536
REMARK  227  A    between atoms: _538  and  _540
REMARK  228  A    between atoms: _540  and  _541
REMARK  229  A    between atoms: _540  and  _543
REMARK  230  A    between atoms: _543  and  _544
REMARK  231  A    between atoms: _549  and  _550
REMARK  232  A    between atoms: _552  and  _554
REMARK  233  A    between atoms: _554  and  _555
REMARK  234  A    between atoms: _554  and  _557
REMARK  235  A    between atoms: _557  and  _558
REMARK  236  A    between atoms: _561  and  _563
REMARK  237  A    between atoms: _563  and  _564
REMARK  238  A    between atoms: _563  and  _566
REMARK  239  A    between atoms: _566  and  _567
REMARK  240  A    between atoms: _567  and  _568
REMARK  241  A    between atoms: _574  and  _575
REMARK  242  A    between atoms: _580  and  _582
REMARK  243  A    between atoms: _582  and  _583
REMARK  244  A    between atoms: _582  and  _585
REMARK  245  A    between atoms: _585  and  _586
REMARK  246  A    between atoms: _586  and  _587
REMARK                            x       y       z     vdW  Elec       q    Type
REMARK                         _______ _______ _______ _____ _____    ______ ____
ROOT
ATOM      1  O   HOH     1       7.906   6.910  25.969  0.00  0.00    +0.000 OA
ENDROOT
TORSDOF 0
REMARK  Name = ../refined-set-2016/2wec/2wec_pocket.pdb
REMARK  246 active torsions:
REMARK  status: ('A' for Active; 'I' for Inactive)
REMARK    1  A    between atoms: _1  and  _3
REMARK    2  A    between atoms: _3  and  _4
REMARK    3  A    between atoms: _3  and  _6
REMARK    4  A    between atoms: _6  and  _7
REMARK    5  A    between atoms: _10  and  _12
REMARK    6  A    between atoms: _12  and  _13
REMARK    7  A    between atoms: _12  and  _15
REMARK    8  A    between atoms: _15  and  _16
REMARK    9  A    between atoms: _19  and  _21
REMARK   10  A    between atoms: _21  and  _22
REMARK   11  A    between atoms: _21  and  _24
REMARK   12  A    between atoms: _24  and  _25
REMARK   13  A    between atoms: _25  and  _26
REMARK   14  A    between atoms: _29  and  _31
REMARK   15  A    between atoms: _31  and  _32
REMARK   16  A    between atoms: _31  and  _34
REMARK   17  A    between atoms: _34  and  _35
REMARK   18  A    between atoms: _35  and  _36
REMARK   19  A    between atoms: _39  and  _41
REMARK   20  A    between atoms: _41  and  _42
REMARK   21  A    between atoms: _41  and  _44
REMARK   22  A    between atoms: _44  and  _45
REMARK   23  A    between atoms: _50  and  _51
REMARK   24  A    between atoms: _53  and  _55
REMARK   25  A    between atoms: _55  and  _56
REMARK   26  A    between atoms: _55  and  _58
REMARK   27  A    between atoms: _58  and  _59
REMARK   28  A    between atoms: _64  and  _66
REMARK   29  A    between atoms: _66  and  _67
REMARK   30  A    between atoms: _66  and  _69
REMARK   31  A    between atoms: _69  and  _70
REMARK   32  A    between atoms: _73  and  _75
REMARK   33  A    between atoms: _75  and  _76
REMARK   34  A    between atoms: _75  and  _78
REMARK   35  A    between atoms: _78  and  _79
REMARK   36  A    between atoms: _82  and  _84
REMARK   37  A    between atoms: _84  and  _85
REMARK   38  A    between atoms: _87  and  _89
REMARK   39  A    between atoms: _89  and  _90
REMARK   40  A    between atoms: _89  and  _92
REMARK   41  A    between atoms: _92  and  _93
REMARK   42  A    between atoms: _95  and  _97
REMARK   43  A    between atoms: _97  and  _98
REMARK   44  A    between atoms: _97  and  _100
REMARK   45  A    between atoms: _100  and  _101
REMARK   46  A    between atoms: _104  and  _106
REMARK   47  A    between atoms: _106  and  _107
REMARK   48  A    between atoms: _106  and  _109
REMARK   49  A    between atoms: _109  and  _110
REMARK   50  A    between atoms: _112  and  _114
REMARK   51  A    between atoms: _114  and  _115
REMARK   52  A    between atoms: _114  and  _117
REMARK   53  A    between atoms: _117  and  _118
REMARK   54  A    between atoms: _123  and  _124
REMARK   55  A    between atoms: _126  and  _128
REMARK   56  A    between atoms: _128  and  _129
REMARK   57  A    between atoms: _131  and  _133
REMARK   58  A    between atoms: _133  and  _134
REMARK   59  A    between atoms: _133  and  _136
REMARK   60  A    between atoms: _136  and  _137
REMARK   61  A    between atoms: _140  and  _142
REMARK   62  A    between atoms: _142  and  _143
REMARK   63  A    between atoms: _145  and  _147
REMARK   64  A    between atoms: _147  and  _148
REMARK   65  A    between atoms: _147  and  _150
REMARK   66  A    between atoms: _150  and  _151
REMARK   67  A    between atoms: _153  and  _155
REMARK   68  A    between atoms: _155  and  _156
REMARK   69  A    between atoms: _155  and  _158
REMARK   70  A    between atoms: _158  and  _159
REMARK   71  A    between atoms: _159  and  _160
REMARK   72  A    between atoms: _165  and  _167
REMARK   73  A    between atoms: _167  and  _168
REMARK   74  A    between atoms: _167  and  _170
REMARK   75  A    between atoms: _170  and  _171
REMARK   76  A    between atoms: _177  and  _179
REMARK   77  A    between atoms: _179  and  _180
REMARK   78  A    between atoms: _179  and  _182
REMARK   79  A    between atoms: _182  and  _183
REMARK   80  A    between atoms: _186  and  _188
REMARK   81  A    between atoms: _188  and  _189
REMARK   82  A    between atoms: _188  and  _191
REMARK   83  A    between atoms: _191  and  _192
REMARK   84  A    between atoms: _197  and  _199
REMARK   85  A    between atoms: _199  and  _200
REMARK   86  A    between atoms: _199  and  _202
REMARK   87  A    between atoms: _202  and  _203
REMARK   88  A    between atoms: _208  and  _210
REMARK   89  A    between atoms: _210  and  _211
REMARK   90  A    between atoms: _210  and  _213
REMARK   91  A    between atoms: _213  and  _214
REMARK   92  A    between atoms: _217  and  _219
REMARK   93  A    between atoms: _219  and  _220
REMARK   94  A    between atoms: _223  and  _225
REMARK   95  A    between atoms: _225  and  _226
REMARK   96  A    between atoms: _225  and  _228
REMARK   97  A    between atoms: _228  and  _229
REMARK   98  A    between atoms: _232  and  _234
REMARK   99  A    between atoms: _234  and  _235
REMARK  100  A    between atoms: _234  and  _237
REMARK  101  A    between atoms: _237  and  _238
REMARK  102  A    between atoms: _244  and  _246
REMARK  103  A    between atoms: _246  and  _247
REMARK  104  A    between atoms: _246  and  _249
REMARK  105  A    between atoms: _249  and  _250
REMARK  106  A    between atoms: _253  and  _255
REMARK  107  A    between atoms: _255  and  _256
REMARK  108  A    between atoms: _255  and  _258
REMARK  109  A    between atoms: _258  and  _259
REMARK  110  A    between atoms: _262  and  _264
REMARK  111  A    between atoms: _264  and  _265
REMARK  112  A    between atoms: _264  and  _267
REMARK  113  A    between atoms: _267  and  _268
REMARK  114  A    between atoms: _271  and  _273
REMARK  115  A    between atoms: _273  and  _274
REMARK  116  A    between atoms: _276  and  _278
REMARK  117  A    between atoms: _278  and  _279
REMARK  118  A    between atoms: _278  and  _281
REMARK  119  A    between atoms: _281  and  _282
REMARK  120  A    between atoms: _285  and  _287
REMARK  121  A    between atoms: _287  and  _288
REMARK  122  A    between atoms: _287  and  _290
REMARK  123  A    between atoms: _290  and  _291
REMARK  124  A    between atoms: _294  and  _296
REMARK  125  A    between atoms: _296  and  _297
REMARK  126  A    between atoms: _296  and  _299
REMARK  127  A    between atoms: _299  and  _300
REMARK  128  A    between atoms: _303  and  _305
REMARK  129  A    between atoms: _305  and  _306
REMARK  130  A    between atoms: _305  and  _308
REMARK  131  A    between atoms: _308  and  _309
REMARK  132  A    between atoms: _312  and  _314
REMARK  133  A    between atoms: _314  and  _315
REMARK  134  A    between atoms: _314  and  _317
REMARK  135  A    between atoms: _317  and  _318
REMARK  136  A    between atoms: _321  and  _323
REMARK  137  A    between atoms: _323  and  _324
REMARK  138  A    between atoms: _323  and  _326
REMARK  139  A    between atoms: _326  and  _327
REMARK  140  A    between atoms: _330  and  _332
REMARK  141  A    between atoms: _332  and  _333
REMARK  142  A    between atoms: _332  and  _335
REMARK  143  A    between atoms: _335  and  _336
REMARK  144  A    between atoms: _338  and  _340
REMARK  145  A    between atoms: _340  and  _341
REMARK  146  A    between atoms: _340  and  _343
REMARK  147  A    between atoms: _343  and  _344
REMARK  148  A    between atoms: _349  and  _351
REMARK  149  A    between atoms: _351  and  _352
REMARK  150  A    between atoms: _355  and  _357
REMARK  151  A    between atoms: _357  and  _358
REMARK  152  A    between atoms: _360  and  _362
REMARK  153  A    between atoms: _362  and  _363
REMARK  154  A    between atoms: _365  and  _367
REMARK  155  A    between atoms: _367  and  _368
REMARK  156  A    between atoms: _367  and  _370
REMARK  157  A    between atoms: _370  and  _371
REMARK  158  A    between atoms: _376  and  _377
REMARK  159  A    between atoms: _379  and  _381
REMARK  160  A    between atoms: _381  and  _382
REMARK  161  A    between atoms: _381  and  _384
REMARK  162  A    between atoms: _384  and  _385
REMARK  163  A    between atoms: _390  and  _391
REMARK  164  A    between atoms: _393  and  _395
REMARK  165  A    between atoms: _395  and  _396
REMARK  166  A    between atoms: _395  and  _398
REMARK  167  A    between atoms: _398  and  _399
REMARK  168  A    between atoms: _401  and  _403
REMARK  169  A    between atoms: _403  and  _404
REMARK  170  A    between atoms: _403  and  _406
REMARK  171  A    between atoms: _406  and  _407
REMARK  172  A    between atoms: _410  and  _412
REMARK  173  A    between atoms: _412  and  _413
REMARK  174  A    between atoms: _415  and  _417
REMARK  175  A    between atoms: _417  and  _418
REMARK  176  A    between atoms: _420  and  _422
REMARK  177  A    between atoms: _422  and  _423
REMARK  178  A    between atoms: _422  and  _425
REMARK  179  A    between atoms: _425  and  _426
REMARK  180  A    between atoms: _429  and  _431
REMARK  181  A    between atoms: _431  and  _432
REMARK  182  A    between atoms: _431  and  _434
REMARK  183  A    between atoms: _434  and  _435
REMARK  184  A    between atoms: _435  and  _436
REMARK  185  A    between atoms: _441  and  _443
REMARK  186  A    between atoms: _443  and  _444
REMARK  187  A    between atoms: _443  and  _446
REMARK  188  A    between atoms: _446  and  _447
REMARK  189  A    between atoms: _449  and  _451
REMARK  190  A    between atoms: _451  and  _452
REMARK  191  A    between atoms: _451  and  _454
REMARK  192  A    between atoms: _454  and  _455
REMARK  193  A    between atoms: _460  and  _462
REMARK  194  A    between atoms: _462  and  _463
REMARK  195  A    between atoms: _462  and  _465
REMARK  196  A    between atoms: _465  and  _466
REMARK  197  A    between atoms: _468  and  _470
REMARK  198  A    between atoms: _470  and  _471
REMARK  199  A    between atoms: _473  and  _475
REMARK  200  A    between atoms: _475  and  _476
REMARK  201  A    between atoms: _475  and  _478
REMARK  202  A    between atoms: _478  and  _479
REMARK  203  A    between atoms: _482  and  _484
REMARK  204  A    between atoms: _484  and  _485
REMARK  205  A    between atoms: _484  and  _487
REMARK  206  A    between atoms: _487  and  _488
REMARK  207  A    between atoms: _494  and  _496
REMARK  208  A    between atoms: _496  and  _497
REMARK  209  A    between atoms: _496  and  _499
REMARK  210  A    between atoms: _499  and  _500
REMARK  211  A    between atoms: _502  and  _504
REMARK  212  A    between atoms: _504  and  _505
REMARK  213  A    between atoms: _504  and  _507
REMARK  214  A    between atoms: _507  and  _508
REMARK  215  A    between atoms: _511  and  _513
REMARK  216  A    between atoms: _513  and  _514
REMARK  217  A    between atoms: _516  and  _518
REMARK  218  A    between atoms: _518  and  _519
REMARK  219  A    between atoms: _518  and  _521
REMARK  220  A    between atoms: _521  and  _522
REMARK  221  A    between atoms: _525  and  _527
REMARK  222  A    between atoms: _527  and  _528
REMARK  223  A    between atoms: _527  and  _530
REMARK  224  A    between atoms: _530  and  _531
REMARK  225  A    between atoms: _533  and  _535
REMARK  226  A    between atoms: _535  and  _536
REMARK  227  A    between atoms: _538  and  _540
REMARK  228  A    between atoms: _540  and  _541
REMARK  229  A    between atoms: _540  and  _543
REMARK  230  A    between atoms: _543  and  _544
REMARK  231  A    between atoms: _549  and  _550
REMARK  232  A    between atoms: _552  and  _554
REMARK  233  A    between atoms: _554  and  _555
REMARK  234  A    between atoms: _554  and  _557
REMARK  235  A    between atoms: _557  and  _558
REMARK  236  A    between atoms: _561  and  _563
REMARK  237  A    between atoms: _563  and  _564
REMARK  238  A    between atoms: _563  and  _566
REMARK  239  A    between atoms: _566  and  _567
REMARK  240  A    between atoms: _567  and  _568
REMARK  241  A    between atoms: _574  and  _575
REMARK  242  A    between atoms: _580  and  _582
REMARK  243  A    between atoms: _582  and  _583
REMARK  244  A    between atoms: _582  and  _585
REMARK  245  A    between atoms: _585  and  _586
REMARK  246  A    between atoms: _586  and  _587
REMARK                            x       y       z     vdW  Elec       q    Type
REMARK                         _______ _______ _______ _____ _____    ______ ____
ROOT
ATOM      1  O   HOH     1      23.636   9.195  17.411  0.00  0.00    +0.000 OA
ENDROOT
TORSDOF 0
REMARK  Name = ../refined-set-2016/2wec/2wec_pocket.pdb
REMARK  246 active torsions:
REMARK  status: ('A' for Active; 'I' for Inactive)
REMARK    1  A    between atoms: _1  and  _3
REMARK    2  A    between atoms: _3  and  _4
REMARK    3  A    between atoms: _3  and  _6
REMARK    4  A    between atoms: _6  and  _7
REMARK    5  A    between atoms: _10  and  _12
REMARK    6  A    between atoms: _12  and  _13
REMARK    7  A    between atoms: _12  and  _15
REMARK    8  A    between atoms: _15  and  _16
REMARK    9  A    between atoms: _19  and  _21
REMARK   10  A    between atoms: _21  and  _22
REMARK   11  A    between atoms: _21  and  _24
REMARK   12  A    between atoms: _24  and  _25
REMARK   13  A    between atoms: _25  and  _26
REMARK   14  A    between atoms: _29  and  _31
REMARK   15  A    between atoms: _31  and  _32
REMARK   16  A    between atoms: _31  and  _34
REMARK   17  A    between atoms: _34  and  _35
REMARK   18  A    between atoms: _35  and  _36
REMARK   19  A    between atoms: _39  and  _41
REMARK   20  A    between atoms: _41  and  _42
REMARK   21  A    between atoms: _41  and  _44
REMARK   22  A    between atoms: _44  and  _45
REMARK   23  A    between atoms: _50  and  _51
REMARK   24  A    between atoms: _53  and  _55
REMARK   25  A    between atoms: _55  and  _56
REMARK   26  A    between atoms: _55  and  _58
REMARK   27  A    between atoms: _58  and  _59
REMARK   28  A    between atoms: _64  and  _66
REMARK   29  A    between atoms: _66  and  _67
REMARK   30  A    between atoms: _66  and  _69
REMARK   31  A    between atoms: _69  and  _70
REMARK   32  A    between atoms: _73  and  _75
REMARK   33  A    between atoms: _75  and  _76
REMARK   34  A    between atoms: _75  and  _78
REMARK   35  A    between atoms: _78  and  _79
REMARK   36  A    between atoms: _82  and  _84
REMARK   37  A    between atoms: _84  and  _85
REMARK   38  A    between atoms: _87  and  _89
REMARK   39  A    between atoms: _89  and  _90
REMARK   40  A    between atoms: _89  and  _92
REMARK   41  A    between atoms: _92  and  _93
REMARK   42  A    between atoms: _95  and  _97
REMARK   43  A    between atoms: _97  and  _98
REMARK   44  A    between atoms: _97  and  _100
REMARK   45  A    between atoms: _100  and  _101
REMARK   46  A    between atoms: _104  and  _106
REMARK   47  A    between atoms: _106  and  _107
REMARK   48  A    between atoms: _106  and  _109
REMARK   49  A    between atoms: _109  and  _110
REMARK   50  A    between atoms: _112  and  _114
REMARK   51  A    between atoms: _114  and  _115
REMARK   52  A    between atoms: _114  and  _117
REMARK   53  A    between atoms: _117  and  _118
REMARK   54  A    between atoms: _123  and  _124
REMARK   55  A    between atoms: _126  and  _128
REMARK   56  A    between atoms: _128  and  _129
REMARK   57  A    between atoms: _131  and  _133
REMARK   58  A    between atoms: _133  and  _134
REMARK   59  A    between atoms: _133  and  _136
REMARK   60  A    between atoms: _136  and  _137
REMARK   61  A    between atoms: _140  and  _142
REMARK   62  A    between atoms: _142  and  _143
REMARK   63  A    between atoms: _145  and  _147
REMARK   64  A    between atoms: _147  and  _148
REMARK   65  A    between atoms: _147  and  _150
REMARK   66  A    between atoms: _150  and  _151
REMARK   67  A    between atoms: _153  and  _155
REMARK   68  A    between atoms: _155  and  _156
REMARK   69  A    between atoms: _155  and  _158
REMARK   70  A    between atoms: _158  and  _159
REMARK   71  A    between atoms: _159  and  _160
REMARK   72  A    between atoms: _165  and  _167
REMARK   73  A    between atoms: _167  and  _168
REMARK   74  A    between atoms: _167  and  _170
REMARK   75  A    between atoms: _170  and  _171
REMARK   76  A    between atoms: _177  and  _179
REMARK   77  A    between atoms: _179  and  _180
REMARK   78  A    between atoms: _179  and  _182
REMARK   79  A    between atoms: _182  and  _183
REMARK   80  A    between atoms: _186  and  _188
REMARK   81  A    between atoms: _188  and  _189
REMARK   82  A    between atoms: _188  and  _191
REMARK   83  A    between atoms: _191  and  _192
REMARK   84  A    between atoms: _197  and  _199
REMARK   85  A    between atoms: _199  and  _200
REMARK   86  A    between atoms: _199  and  _202
REMARK   87  A    between atoms: _202  and  _203
REMARK   88  A    between atoms: _208  and  _210
REMARK   89  A    between atoms: _210  and  _211
REMARK   90  A    between atoms: _210  and  _213
REMARK   91  A    between atoms: _213  and  _214
REMARK   92  A    between atoms: _217  and  _219
REMARK   93  A    between atoms: _219  and  _220
REMARK   94  A    between atoms: _223  and  _225
REMARK   95  A    between atoms: _225  and  _226
REMARK   96  A    between atoms: _225  and  _228
REMARK   97  A    between atoms: _228  and  _229
REMARK   98  A    between atoms: _232  and  _234
REMARK   99  A    between atoms: _234  and  _235
REMARK  100  A    between atoms: _234  and  _237
REMARK  101  A    between atoms: _237  and  _238
REMARK  102  A    between atoms: _244  and  _246
REMARK  103  A    between atoms: _246  and  _247
REMARK  104  A    between atoms: _246  and  _249
REMARK  105  A    between atoms: _249  and  _250
REMARK  106  A    between atoms: _253  and  _255
REMARK  107  A    between atoms: _255  and  _256
REMARK  108  A    between atoms: _255  and  _258
REMARK  109  A    between atoms: _258  and  _259
REMARK  110  A    between atoms: _262  and  _264
REMARK  111  A    between atoms: _264  and  _265
REMARK  112  A    between atoms: _264  and  _267
REMARK  113  A    between atoms: _267  and  _268
REMARK  114  A    between atoms: _271  and  _273
REMARK  115  A    between atoms: _273  and  _274
REMARK  116  A    between atoms: _276  and  _278
REMARK  117  A    between atoms: _278  and  _279
REMARK  118  A    between atoms: _278  and  _281
REMARK  119  A    between atoms: _281  and  _282
REMARK  120  A    between atoms: _285  and  _287
REMARK  121  A    between atoms: _287  and  _288
REMARK  122  A    between atoms: _287  and  _290
REMARK  123  A    between atoms: _290  and  _291
REMARK  124  A    between atoms: _294  and  _296
REMARK  125  A    between atoms: _296  and  _297
REMARK  126  A    between atoms: _296  and  _299
REMARK  127  A    between atoms: _299  and  _300
REMARK  128  A    between atoms: _303  and  _305
REMARK  129  A    between atoms: _305  and  _306
REMARK  130  A    between atoms: _305  and  _308
REMARK  131  A    between atoms: _308  and  _309
REMARK  132  A    between atoms: _312  and  _314
REMARK  133  A    between atoms: _314  and  _315
REMARK  134  A    between atoms: _314  and  _317
REMARK  135  A    between atoms: _317  and  _318
REMARK  136  A    between atoms: _321  and  _323
REMARK  137  A    between atoms: _323  and  _324
REMARK  138  A    between atoms: _323  and  _326
REMARK  139  A    between atoms: _326  and  _327
REMARK  140  A    between atoms: _330  and  _332
REMARK  141  A    between atoms: _332  and  _333
REMARK  142  A    between atoms: _332  and  _335
REMARK  143  A    between atoms: _335  and  _336
REMARK  144  A    between atoms: _338  and  _340
REMARK  145  A    between atoms: _340  and  _341
REMARK  146  A    between atoms: _340  and  _343
REMARK  147  A    between atoms: _343  and  _344
REMARK  148  A    between atoms: _349  and  _351
REMARK  149  A    between atoms: _351  and  _352
REMARK  150  A    between atoms: _355  and  _357
REMARK  151  A    between atoms: _357  and  _358
REMARK  152  A    between atoms: _360  and  _362
REMARK  153  A    between atoms: _362  and  _363
REMARK  154  A    between atoms: _365  and  _367
REMARK  155  A    between atoms: _367  and  _368
REMARK  156  A    between atoms: _367  and  _370
REMARK  157  A    between atoms: _370  and  _371
REMARK  158  A    between atoms: _376  and  _377
REMARK  159  A    between atoms: _379  and  _381
REMARK  160  A    between atoms: _381  and  _382
REMARK  161  A    between atoms: _381  and  _384
REMARK  162  A    between atoms: _384  and  _385
REMARK  163  A    between atoms: _390  and  _391
REMARK  164  A    between atoms: _393  and  _395
REMARK  165  A    between atoms: _395  and  _396
REMARK  166  A    between atoms: _395  and  _398
REMARK  167  A    between atoms: _398  and  _399
REMARK  168  A    between atoms: _401  and  _403
REMARK  169  A    between atoms: _403  and  _404
REMARK  170  A    between atoms: _403  and  _406
REMARK  171  A    between atoms: _406  and  _407
REMARK  172  A    between atoms: _410  and  _412
REMARK  173  A    between atoms: _412  and  _413
REMARK  174  A    between atoms: _415  and  _417
REMARK  175  A    between atoms: _417  and  _418
REMARK  176  A    between atoms: _420  and  _422
REMARK  177  A    between atoms: _422  and  _423
REMARK  178  A    between atoms: _422  and  _425
REMARK  179  A    between atoms: _425  and  _426
REMARK  180  A    between atoms: _429  and  _431
REMARK  181  A    between atoms: _431  and  _432
REMARK  182  A    between atoms: _431  and  _434
REMARK  183  A    between atoms: _434  and  _435
REMARK  184  A    between atoms: _435  and  _436
REMARK  185  A    between atoms: _441  and  _443
REMARK  186  A    between atoms: _443  and  _444
REMARK  187  A    between atoms: _443  and  _446
REMARK  188  A    between atoms: _446  and  _447
REMARK  189  A    between atoms: _449  and  _451
REMARK  190  A    between atoms: _451  and  _452
REMARK  191  A    between atoms: _451  and  _454
REMARK  192  A    between atoms: _454  and  _455
REMARK  193  A    between atoms: _460  and  _462
REMARK  194  A    between atoms: _462  and  _463
REMARK  195  A    between atoms: _462  and  _465
REMARK  196  A    between atoms: _465  and  _466
REMARK  197  A    between atoms: _468  and  _470
REMARK  198  A    between atoms: _470  and  _471
REMARK  199  A    between atoms: _473  and  _475
REMARK  200  A    between atoms: _475  and  _476
REMARK  201  A    between atoms: _475  and  _478
REMARK  202  A    between atoms: _478  and  _479
REMARK  203  A    between atoms: _482  and  _484
REMARK  204  A    between atoms: _484  and  _485
REMARK  205  A    between atoms: _484  and  _487
REMARK  206  A    between atoms: _487  and  _488
REMARK  207  A    between atoms: _494  and  _496
REMARK  208  A    between atoms: _496  and  _497
REMARK  209  A    between atoms: _496  and  _499
REMARK  210  A    between atoms: _499  and  _500
REMARK  211  A    between atoms: _502  and  _504
REMARK  212  A    between atoms: _504  and  _505
REMARK  213  A    between atoms: _504  and  _507
REMARK  214  A    between atoms: _507  and  _508
REMARK  215  A    between atoms: _511  and  _513
REMARK  216  A    between atoms: _513  and  _514
REMARK  217  A    between atoms: _516  and  _518
REMARK  218  A    between atoms: _518  and  _519
REMARK  219  A    between atoms: _518  and  _521
REMARK  220  A    between atoms: _521  and  _522
REMARK  221  A    between atoms: _525  and  _527
REMARK  222  A    between atoms: _527  and  _528
REMARK  223  A    between atoms: _527  and  _530
REMARK  224  A    between atoms: _530  and  _531
REMARK  225  A    between atoms: _533  and  _535
REMARK  226  A    between atoms: _535  and  _536
REMARK  227  A    between atoms: _538  and  _540
REMARK  228  A    between atoms: _540  and  _541
REMARK  229  A    between atoms: _540  and  _543
REMARK  230  A    between atoms: _543  and  _544
REMARK  231  A    between atoms: _549  and  _550
REMARK  232  A    between atoms: _552  and  _554
REMARK  233  A    between atoms: _554  and  _555
REMARK  234  A    between atoms: _554  and  _557
REMARK  235  A    between atoms: _557  and  _558
REMARK  236  A    between atoms: _561  and  _563
REMARK  237  A    between atoms: _563  and  _564
REMARK  238  A    between atoms: _563  and  _566
REMARK  239  A    between atoms: _566  and  _567
REMARK  240  A    between atoms: _567  and  _568
REMARK  241  A    between atoms: _574  and  _575
REMARK  242  A    between atoms: _580  and  _582
REMARK  243  A    between atoms: _582  and  _583
REMARK  244  A    between atoms: _582  and  _585
REMARK  245  A    between atoms: _585  and  _586
REMARK  246  A    between atoms: _586  and  _587
REMARK                            x       y       z     vdW  Elec       q    Type
REMARK                         _______ _______ _______ _____ _____    ______ ____
ROOT
ATOM      1  O   HOH     1      24.439   9.596  19.619  0.00  0.00    +0.000 OA
ENDROOT
TORSDOF 0
REMARK  Name = ../refined-set-2016/2wec/2wec_pocket.pdb
REMARK  246 active torsions:
REMARK  status: ('A' for Active; 'I' for Inactive)
REMARK    1  A    between atoms: _1  and  _3
REMARK    2  A    between atoms: _3  and  _4
REMARK    3  A    between atoms: _3  and  _6
REMARK    4  A    between atoms: _6  and  _7
REMARK    5  A    between atoms: _10  and  _12
REMARK    6  A    between atoms: _12  and  _13
REMARK    7  A    between atoms: _12  and  _15
REMARK    8  A    between atoms: _15  and  _16
REMARK    9  A    between atoms: _19  and  _21
REMARK   10  A    between atoms: _21  and  _22
REMARK   11  A    between atoms: _21  and  _24
REMARK   12  A    between atoms: _24  and  _25
REMARK   13  A    between atoms: _25  and  _26
REMARK   14  A    between atoms: _29  and  _31
REMARK   15  A    between atoms: _31  and  _32
REMARK   16  A    between atoms: _31  and  _34
REMARK   17  A    between atoms: _34  and  _35
REMARK   18  A    between atoms: _35  and  _36
REMARK   19  A    between atoms: _39  and  _41
REMARK   20  A    between atoms: _41  and  _42
REMARK   21  A    between atoms: _41  and  _44
REMARK   22  A    between atoms: _44  and  _45
REMARK   23  A    between atoms: _50  and  _51
REMARK   24  A    between atoms: _53  and  _55
REMARK   25  A    between atoms: _55  and  _56
REMARK   26  A    between atoms: _55  and  _58
REMARK   27  A    between atoms: _58  and  _59
REMARK   28  A    between atoms: _64  and  _66
REMARK   29  A    between atoms: _66  and  _67
REMARK   30  A    between atoms: _66  and  _69
REMARK   31  A    between atoms: _69  and  _70
REMARK   32  A    between atoms: _73  and  _75
REMARK   33  A    between atoms: _75  and  _76
REMARK   34  A    between atoms: _75  and  _78
REMARK   35  A    between atoms: _78  and  _79
REMARK   36  A    between atoms: _82  and  _84
REMARK   37  A    between atoms: _84  and  _85
REMARK   38  A    between atoms: _87  and  _89
REMARK   39  A    between atoms: _89  and  _90
REMARK   40  A    between atoms: _89  and  _92
REMARK   41  A    between atoms: _92  and  _93
REMARK   42  A    between atoms: _95  and  _97
REMARK   43  A    between atoms: _97  and  _98
REMARK   44  A    between atoms: _97  and  _100
REMARK   45  A    between atoms: _100  and  _101
REMARK   46  A    between atoms: _104  and  _106
REMARK   47  A    between atoms: _106  and  _107
REMARK   48  A    between atoms: _106  and  _109
REMARK   49  A    between atoms: _109  and  _110
REMARK   50  A    between atoms: _112  and  _114
REMARK   51  A    between atoms: _114  and  _115
REMARK   52  A    between atoms: _114  and  _117
REMARK   53  A    between atoms: _117  and  _118
REMARK   54  A    between atoms: _123  and  _124
REMARK   55  A    between atoms: _126  and  _128
REMARK   56  A    between atoms: _128  and  _129
REMARK   57  A    between atoms: _131  and  _133
REMARK   58  A    between atoms: _133  and  _134
REMARK   59  A    between atoms: _133  and  _136
REMARK   60  A    between atoms: _136  and  _137
REMARK   61  A    between atoms: _140  and  _142
REMARK   62  A    between atoms: _142  and  _143
REMARK   63  A    between atoms: _145  and  _147
REMARK   64  A    between atoms: _147  and  _148
REMARK   65  A    between atoms: _147  and  _150
REMARK   66  A    between atoms: _150  and  _151
REMARK   67  A    between atoms: _153  and  _155
REMARK   68  A    between atoms: _155  and  _156
REMARK   69  A    between atoms: _155  and  _158
REMARK   70  A    between atoms: _158  and  _159
REMARK   71  A    between atoms: _159  and  _160
REMARK   72  A    between atoms: _165  and  _167
REMARK   73  A    between atoms: _167  and  _168
REMARK   74  A    between atoms: _167  and  _170
REMARK   75  A    between atoms: _170  and  _171
REMARK   76  A    between atoms: _177  and  _179
REMARK   77  A    between atoms: _179  and  _180
REMARK   78  A    between atoms: _179  and  _182
REMARK   79  A    between atoms: _182  and  _183
REMARK   80  A    between atoms: _186  and  _188
REMARK   81  A    between atoms: _188  and  _189
REMARK   82  A    between atoms: _188  and  _191
REMARK   83  A    between atoms: _191  and  _192
REMARK   84  A    between atoms: _197  and  _199
REMARK   85  A    between atoms: _199  and  _200
REMARK   86  A    between atoms: _199  and  _202
REMARK   87  A    between atoms: _202  and  _203
REMARK   88  A    between atoms: _208  and  _210
REMARK   89  A    between atoms: _210  and  _211
REMARK   90  A    between atoms: _210  and  _213
REMARK   91  A    between atoms: _213  and  _214
REMARK   92  A    between atoms: _217  and  _219
REMARK   93  A    between atoms: _219  and  _220
REMARK   94  A    between atoms: _223  and  _225
REMARK   95  A    between atoms: _225  and  _226
REMARK   96  A    between atoms: _225  and  _228
REMARK   97  A    between atoms: _228  and  _229
REMARK   98  A    between atoms: _232  and  _234
REMARK   99  A    between atoms: _234  and  _235
REMARK  100  A    between atoms: _234  and  _237
REMARK  101  A    between atoms: _237  and  _238
REMARK  102  A    between atoms: _244  and  _246
REMARK  103  A    between atoms: _246  and  _247
REMARK  104  A    between atoms: _246  and  _249
REMARK  105  A    between atoms: _249  and  _250
REMARK  106  A    between atoms: _253  and  _255
REMARK  107  A    between atoms: _255  and  _256
REMARK  108  A    between atoms: _255  and  _258
REMARK  109  A    between atoms: _258  and  _259
REMARK  110  A    between atoms: _262  and  _264
REMARK  111  A    between atoms: _264  and  _265
REMARK  112  A    between atoms: _264  and  _267
REMARK  113  A    between atoms: _267  and  _268
REMARK  114  A    between atoms: _271  and  _273
REMARK  115  A    between atoms: _273  and  _274
REMARK  116  A    between atoms: _276  and  _278
REMARK  117  A    between atoms: _278  and  _279
REMARK  118  A    between atoms: _278  and  _281
REMARK  119  A    between atoms: _281  and  _282
REMARK  120  A    between atoms: _285  and  _287
REMARK  121  A    between atoms: _287  and  _288
REMARK  122  A    between atoms: _287  and  _290
REMARK  123  A    between atoms: _290  and  _291
REMARK  124  A    between atoms: _294  and  _296
REMARK  125  A    between atoms: _296  and  _297
REMARK  126  A    between atoms: _296  and  _299
REMARK  127  A    between atoms: _299  and  _300
REMARK  128  A    between atoms: _303  and  _305
REMARK  129  A    between atoms: _305  and  _306
REMARK  130  A    between atoms: _305  and  _308
REMARK  131  A    between atoms: _308  and  _309
REMARK  132  A    between atoms: _312  and  _314
REMARK  133  A    between atoms: _314  and  _315
REMARK  134  A    between atoms: _314  and  _317
REMARK  135  A    between atoms: _317  and  _318
REMARK  136  A    between atoms: _321  and  _323
REMARK  137  A    between atoms: _323  and  _324
REMARK  138  A    between atoms: _323  and  _326
REMARK  139  A    between atoms: _326  and  _327
REMARK  140  A    between atoms: _330  and  _332
REMARK  141  A    between atoms: _332  and  _333
REMARK  142  A    between atoms: _332  and  _335
REMARK  143  A    between atoms: _335  and  _336
REMARK  144  A    between atoms: _338  and  _340
REMARK  145  A    between atoms: _340  and  _341
REMARK  146  A    between atoms: _340  and  _343
REMARK  147  A    between atoms: _343  and  _344
REMARK  148  A    between atoms: _349  and  _351
REMARK  149  A    between atoms: _351  and  _352
REMARK  150  A    between atoms: _355  and  _357
REMARK  151  A    between atoms: _357  and  _358
REMARK  152  A    between atoms: _360  and  _362
REMARK  153  A    between atoms: _362  and  _363
REMARK  154  A    between atoms: _365  and  _367
REMARK  155  A    between atoms: _367  and  _368
REMARK  156  A    between atoms: _367  and  _370
REMARK  157  A    between atoms: _370  and  _371
REMARK  158  A    between atoms: _376  and  _377
REMARK  159  A    between atoms: _379  and  _381
REMARK  160  A    between atoms: _381  and  _382
REMARK  161  A    between atoms: _381  and  _384
REMARK  162  A    between atoms: _384  and  _385
REMARK  163  A    between atoms: _390  and  _391
REMARK  164  A    between atoms: _393  and  _395
REMARK  165  A    between atoms: _395  and  _396
REMARK  166  A    between atoms: _395  and  _398
REMARK  167  A    between atoms: _398  and  _399
REMARK  168  A    between atoms: _401  and  _403
REMARK  169  A    between atoms: _403  and  _404
REMARK  170  A    between atoms: _403  and  _406
REMARK  171  A    between atoms: _406  and  _407
REMARK  172  A    between atoms: _410  and  _412
REMARK  173  A    between atoms: _412  and  _413
REMARK  174  A    between atoms: _415  and  _417
REMARK  175  A    between atoms: _417  and  _418
REMARK  176  A    between atoms: _420  and  _422
REMARK  177  A    between atoms: _422  and  _423
REMARK  178  A    between atoms: _422  and  _425
REMARK  179  A    between atoms: _425  and  _426
REMARK  180  A    between atoms: _429  and  _431
REMARK  181  A    between atoms: _431  and  _432
REMARK  182  A    between atoms: _431  and  _434
REMARK  183  A    between atoms: _434  and  _435
REMARK  184  A    between atoms: _435  and  _436
REMARK  185  A    between atoms: _441  and  _443
REMARK  186  A    between atoms: _443  and  _444
REMARK  187  A    between atoms: _443  and  _446
REMARK  188  A    between atoms: _446  and  _447
REMARK  189  A    between atoms: _449  and  _451
REMARK  190  A    between atoms: _451  and  _452
REMARK  191  A    between atoms: _451  and  _454
REMARK  192  A    between atoms: _454  and  _455
REMARK  193  A    between atoms: _460  and  _462
REMARK  194  A    between atoms: _462  and  _463
REMARK  195  A    between atoms: _462  and  _465
REMARK  196  A    between atoms: _465  and  _466
REMARK  197  A    between atoms: _468  and  _470
REMARK  198  A    between atoms: _470  and  _471
REMARK  199  A    between atoms: _473  and  _475
REMARK  200  A    between atoms: _475  and  _476
REMARK  201  A    between atoms: _475  and  _478
REMARK  202  A    between atoms: _478  and  _479
REMARK  203  A    between atoms: _482  and  _484
REMARK  204  A    between atoms: _484  and  _485
REMARK  205  A    between atoms: _484  and  _487
REMARK  206  A    between atoms: _487  and  _488
REMARK  207  A    between atoms: _494  and  _496
REMARK  208  A    between atoms: _496  and  _497
REMARK  209  A    between atoms: _496  and  _499
REMARK  210  A    between atoms: _499  and  _500
REMARK  211  A    between atoms: _502  and  _504
REMARK  212  A    between atoms: _504  and  _505
REMARK  213  A    between atoms: _504  and  _507
REMARK  214  A    between atoms: _507  and  _508
REMARK  215  A    between atoms: _511  and  _513
REMARK  216  A    between atoms: _513  and  _514
REMARK  217  A    between atoms: _516  and  _518
REMARK  218  A    between atoms: _518  and  _519
REMARK  219  A    between atoms: _518  and  _521
REMARK  220  A    between atoms: _521  and  _522
REMARK  221  A    between atoms: _525  and  _527
REMARK  222  A    between atoms: _527  and  _528
REMARK  223  A    between atoms: _527  and  _530
REMARK  224  A    between atoms: _530  and  _531
REMARK  225  A    between atoms: _533  and  _535
REMARK  226  A    between atoms: _535  and  _536
REMARK  227  A    between atoms: _538  and  _540
REMARK  228  A    between atoms: _540  and  _541
REMARK  229  A    between atoms: _540  and  _543
REMARK  230  A    between atoms: _543  and  _544
REMARK  231  A    between atoms: _549  and  _550
REMARK  232  A    between atoms: _552  and  _554
REMARK  233  A    between atoms: _554  and  _555
REMARK  234  A    between atoms: _554  and  _557
REMARK  235  A    between atoms: _557  and  _558
REMARK  236  A    between atoms: _561  and  _563
REMARK  237  A    between atoms: _563  and  _564
REMARK  238  A    between atoms: _563  and  _566
REMARK  239  A    between atoms: _566  and  _567
REMARK  240  A    between atoms: _567  and  _568
REMARK  241  A    between atoms: _574  and  _575
REMARK  242  A    between atoms: _580  and  _582
REMARK  243  A    between atoms: _582  and  _583
REMARK  244  A    between atoms: _582  and  _585
REMARK  245  A    between atoms: _585  and  _586
REMARK  246  A    between atoms: _586  and  _587
REMARK                            x       y       z     vdW  Elec       q    Type
REMARK                         _______ _______ _______ _____ _____    ______ ____
ROOT
ATOM      1  O   HOH     1      21.428  10.680  12.989  0.00  0.00    +0.000 OA
ENDROOT
TORSDOF 0
REMARK  Name = ../refined-set-2016/2wec/2wec_pocket.pdb
REMARK  246 active torsions:
REMARK  status: ('A' for Active; 'I' for Inactive)
REMARK    1  A    between atoms: _1  and  _3
REMARK    2  A    between atoms: _3  and  _4
REMARK    3  A    between atoms: _3  and  _6
REMARK    4  A    between atoms: _6  and  _7
REMARK    5  A    between atoms: _10  and  _12
REMARK    6  A    between atoms: _12  and  _13
REMARK    7  A    between atoms: _12  and  _15
REMARK    8  A    between atoms: _15  and  _16
REMARK    9  A    between atoms: _19  and  _21
REMARK   10  A    between atoms: _21  and  _22
REMARK   11  A    between atoms: _21  and  _24
REMARK   12  A    between atoms: _24  and  _25
REMARK   13  A    between atoms: _25  and  _26
REMARK   14  A    between atoms: _29  and  _31
REMARK   15  A    between atoms: _31  and  _32
REMARK   16  A    between atoms: _31  and  _34
REMARK   17  A    between atoms: _34  and  _35
REMARK   18  A    between atoms: _35  and  _36
REMARK   19  A    between atoms: _39  and  _41
REMARK   20  A    between atoms: _41  and  _42
REMARK   21  A    between atoms: _41  and  _44
REMARK   22  A    between atoms: _44  and  _45
REMARK   23  A    between atoms: _50  and  _51
REMARK   24  A    between atoms: _53  and  _55
REMARK   25  A    between atoms: _55  and  _56
REMARK   26  A    between atoms: _55  and  _58
REMARK   27  A    between atoms: _58  and  _59
REMARK   28  A    between atoms: _64  and  _66
REMARK   29  A    between atoms: _66  and  _67
REMARK   30  A    between atoms: _66  and  _69
REMARK   31  A    between atoms: _69  and  _70
REMARK   32  A    between atoms: _73  and  _75
REMARK   33  A    between atoms: _75  and  _76
REMARK   34  A    between atoms: _75  and  _78
REMARK   35  A    between atoms: _78  and  _79
REMARK   36  A    between atoms: _82  and  _84
REMARK   37  A    between atoms: _84  and  _85
REMARK   38  A    between atoms: _87  and  _89
REMARK   39  A    between atoms: _89  and  _90
REMARK   40  A    between atoms: _89  and  _92
REMARK   41  A    between atoms: _92  and  _93
REMARK   42  A    between atoms: _95  and  _97
REMARK   43  A    between atoms: _97  and  _98
REMARK   44  A    between atoms: _97  and  _100
REMARK   45  A    between atoms: _100  and  _101
REMARK   46  A    between atoms: _104  and  _106
REMARK   47  A    between atoms: _106  and  _107
REMARK   48  A    between atoms: _106  and  _109
REMARK   49  A    between atoms: _109  and  _110
REMARK   50  A    between atoms: _112  and  _114
REMARK   51  A    between atoms: _114  and  _115
REMARK   52  A    between atoms: _114  and  _117
REMARK   53  A    between atoms: _117  and  _118
REMARK   54  A    between atoms: _123  and  _124
REMARK   55  A    between atoms: _126  and  _128
REMARK   56  A    between atoms: _128  and  _129
REMARK   57  A    between atoms: _131  and  _133
REMARK   58  A    between atoms: _133  and  _134
REMARK   59  A    between atoms: _133  and  _136
REMARK   60  A    between atoms: _136  and  _137
REMARK   61  A    between atoms: _140  and  _142
REMARK   62  A    between atoms: _142  and  _143
REMARK   63  A    between atoms: _145  and  _147
REMARK   64  A    between atoms: _147  and  _148
REMARK   65  A    between atoms: _147  and  _150
REMARK   66  A    between atoms: _150  and  _151
REMARK   67  A    between atoms: _153  and  _155
REMARK   68  A    between atoms: _155  and  _156
REMARK   69  A    between atoms: _155  and  _158
REMARK   70  A    between atoms: _158  and  _159
REMARK   71  A    between atoms: _159  and  _160
REMARK   72  A    between atoms: _165  and  _167
REMARK   73  A    between atoms: _167  and  _168
REMARK   74  A    between atoms: _167  and  _170
REMARK   75  A    between atoms: _170  and  _171
REMARK   76  A    between atoms: _177  and  _179
REMARK   77  A    between atoms: _179  and  _180
REMARK   78  A    between atoms: _179  and  _182
REMARK   79  A    between atoms: _182  and  _183
REMARK   80  A    between atoms: _186  and  _188
REMARK   81  A    between atoms: _188  and  _189
REMARK   82  A    between atoms: _188  and  _191
REMARK   83  A    between atoms: _191  and  _192
REMARK   84  A    between atoms: _197  and  _199
REMARK   85  A    between atoms: _199  and  _200
REMARK   86  A    between atoms: _199  and  _202
REMARK   87  A    between atoms: _202  and  _203
REMARK   88  A    between atoms: _208  and  _210
REMARK   89  A    between atoms: _210  and  _211
REMARK   90  A    between atoms: _210  and  _213
REMARK   91  A    between atoms: _213  and  _214
REMARK   92  A    between atoms: _217  and  _219
REMARK   93  A    between atoms: _219  and  _220
REMARK   94  A    between atoms: _223  and  _225
REMARK   95  A    between atoms: _225  and  _226
REMARK   96  A    between atoms: _225  and  _228
REMARK   97  A    between atoms: _228  and  _229
REMARK   98  A    between atoms: _232  and  _234
REMARK   99  A    between atoms: _234  and  _235
REMARK  100  A    between atoms: _234  and  _237
REMARK  101  A    between atoms: _237  and  _238
REMARK  102  A    between atoms: _244  and  _246
REMARK  103  A    between atoms: _246  and  _247
REMARK  104  A    between atoms: _246  and  _249
REMARK  105  A    between atoms: _249  and  _250
REMARK  106  A    between atoms: _253  and  _255
REMARK  107  A    between atoms: _255  and  _256
REMARK  108  A    between atoms: _255  and  _258
REMARK  109  A    between atoms: _258  and  _259
REMARK  110  A    between atoms: _262  and  _264
REMARK  111  A    between atoms: _264  and  _265
REMARK  112  A    between atoms: _264  and  _267
REMARK  113  A    between atoms: _267  and  _268
REMARK  114  A    between atoms: _271  and  _273
REMARK  115  A    between atoms: _273  and  _274
REMARK  116  A    between atoms: _276  and  _278
REMARK  117  A    between atoms: _278  and  _279
REMARK  118  A    between atoms: _278  and  _281
REMARK  119  A    between atoms: _281  and  _282
REMARK  120  A    between atoms: _285  and  _287
REMARK  121  A    between atoms: _287  and  _288
REMARK  122  A    between atoms: _287  and  _290
REMARK  123  A    between atoms: _290  and  _291
REMARK  124  A    between atoms: _294  and  _296
REMARK  125  A    between atoms: _296  and  _297
REMARK  126  A    between atoms: _296  and  _299
REMARK  127  A    between atoms: _299  and  _300
REMARK  128  A    between atoms: _303  and  _305
REMARK  129  A    between atoms: _305  and  _306
REMARK  130  A    between atoms: _305  and  _308
REMARK  131  A    between atoms: _308  and  _309
REMARK  132  A    between atoms: _312  and  _314
REMARK  133  A    between atoms: _314  and  _315
REMARK  134  A    between atoms: _314  and  _317
REMARK  135  A    between atoms: _317  and  _318
REMARK  136  A    between atoms: _321  and  _323
REMARK  137  A    between atoms: _323  and  _324
REMARK  138  A    between atoms: _323  and  _326
REMARK  139  A    between atoms: _326  and  _327
REMARK  140  A    between atoms: _330  and  _332
REMARK  141  A    between atoms: _332  and  _333
REMARK  142  A    between atoms: _332  and  _335
REMARK  143  A    between atoms: _335  and  _336
REMARK  144  A    between atoms: _338  and  _340
REMARK  145  A    between atoms: _340  and  _341
REMARK  146  A    between atoms: _340  and  _343
REMARK  147  A    between atoms: _343  and  _344
REMARK  148  A    between atoms: _349  and  _351
REMARK  149  A    between atoms: _351  and  _352
REMARK  150  A    between atoms: _355  and  _357
REMARK  151  A    between atoms: _357  and  _358
REMARK  152  A    between atoms: _360  and  _362
REMARK  153  A    between atoms: _362  and  _363
REMARK  154  A    between atoms: _365  and  _367
REMARK  155  A    between atoms: _367  and  _368
REMARK  156  A    between atoms: _367  and  _370
REMARK  157  A    between atoms: _370  and  _371
REMARK  158  A    between atoms: _376  and  _377
REMARK  159  A    between atoms: _379  and  _381
REMARK  160  A    between atoms: _381  and  _382
REMARK  161  A    between atoms: _381  and  _384
REMARK  162  A    between atoms: _384  and  _385
REMARK  163  A    between atoms: _390  and  _391
REMARK  164  A    between atoms: _393  and  _395
REMARK  165  A    between atoms: _395  and  _396
REMARK  166  A    between atoms: _395  and  _398
REMARK  167  A    between atoms: _398  and  _399
REMARK  168  A    between atoms: _401  and  _403
REMARK  169  A    between atoms: _403  and  _404
REMARK  170  A    between atoms: _403  and  _406
REMARK  171  A    between atoms: _406  and  _407
REMARK  172  A    between atoms: _410  and  _412
REMARK  173  A    between atoms: _412  and  _413
REMARK  174  A    between atoms: _415  and  _417
REMARK  175  A    between atoms: _417  and  _418
REMARK  176  A    between atoms: _420  and  _422
REMARK  177  A    between atoms: _422  and  _423
REMARK  178  A    between atoms: _422  and  _425
REMARK  179  A    between atoms: _425  and  _426
REMARK  180  A    between atoms: _429  and  _431
REMARK  181  A    between atoms: _431  and  _432
REMARK  182  A    between atoms: _431  and  _434
REMARK  183  A    between atoms: _434  and  _435
REMARK  184  A    between atoms: _435  and  _436
REMARK  185  A    between atoms: _441  and  _443
REMARK  186  A    between atoms: _443  and  _444
REMARK  187  A    between atoms: _443  and  _446
REMARK  188  A    between atoms: _446  and  _447
REMARK  189  A    between atoms: _449  and  _451
REMARK  190  A    between atoms: _451  and  _452
REMARK  191  A    between atoms: _451  and  _454
REMARK  192  A    between atoms: _454  and  _455
REMARK  193  A    between atoms: _460  and  _462
REMARK  194  A    between atoms: _462  and  _463
REMARK  195  A    between atoms: _462  and  _465
REMARK  196  A    between atoms: _465  and  _466
REMARK  197  A    between atoms: _468  and  _470
REMARK  198  A    between atoms: _470  and  _471
REMARK  199  A    between atoms: _473  and  _475
REMARK  200  A    between atoms: _475  and  _476
REMARK  201  A    between atoms: _475  and  _478
REMARK  202  A    between atoms: _478  and  _479
REMARK  203  A    between atoms: _482  and  _484
REMARK  204  A    between atoms: _484  and  _485
REMARK  205  A    between atoms: _484  and  _487
REMARK  206  A    between atoms: _487  and  _488
REMARK  207  A    between atoms: _494  and  _496
REMARK  208  A    between atoms: _496  and  _497
REMARK  209  A    between atoms: _496  and  _499
REMARK  210  A    between atoms: _499  and  _500
REMARK  211  A    between atoms: _502  and  _504
REMARK  212  A    between atoms: _504  and  _505
REMARK  213  A    between atoms: _504  and  _507
REMARK  214  A    between atoms: _507  and  _508
REMARK  215  A    between atoms: _511  and  _513
REMARK  216  A    between atoms: _513  and  _514
REMARK  217  A    between atoms: _516  and  _518
REMARK  218  A    between atoms: _518  and  _519
REMARK  219  A    between atoms: _518  and  _521
REMARK  220  A    between atoms: _521  and  _522
REMARK  221  A    between atoms: _525  and  _527
REMARK  222  A    between atoms: _527  and  _528
REMARK  223  A    between atoms: _527  and  _530
REMARK  224  A    between atoms: _530  and  _531
REMARK  225  A    between atoms: _533  and  _535
REMARK  226  A    between atoms: _535  and  _536
REMARK  227  A    between atoms: _538  and  _540
REMARK  228  A    between atoms: _540  and  _541
REMARK  229  A    between atoms: _540  and  _543
REMARK  230  A    between atoms: _543  and  _544
REMARK  231  A    between atoms: _549  and  _550
REMARK  232  A    between atoms: _552  and  _554
REMARK  233  A    between atoms: _554  and  _555
REMARK  234  A    between atoms: _554  and  _557
REMARK  235  A    between atoms: _557  and  _558
REMARK  236  A    between atoms: _561  and  _563
REMARK  237  A    between atoms: _563  and  _564
REMARK  238  A    between atoms: _563  and  _566
REMARK  239  A    between atoms: _566  and  _567
REMARK  240  A    between atoms: _567  and  _568
REMARK  241  A    between atoms: _574  and  _575
REMARK  242  A    between atoms: _580  and  _582
REMARK  243  A    between atoms: _582  and  _583
REMARK  244  A    between atoms: _582  and  _585
REMARK  245  A    between atoms: _585  and  _586
REMARK  246  A    between atoms: _586  and  _587
REMARK                            x       y       z     vdW  Elec       q    Type
REMARK                         _______ _______ _______ _____ _____    ______ ____
ROOT
ATOM      1  O   HOH     1      27.138  18.099  28.745  0.00  0.00    +0.000 OA
ENDROOT
TORSDOF 0
REMARK  Name = ../refined-set-2016/2wec/2wec_pocket.pdb
REMARK  246 active torsions:
REMARK  status: ('A' for Active; 'I' for Inactive)
REMARK    1  A    between atoms: _1  and  _3
REMARK    2  A    between atoms: _3  and  _4
REMARK    3  A    between atoms: _3  and  _6
REMARK    4  A    between atoms: _6  and  _7
REMARK    5  A    between atoms: _10  and  _12
REMARK    6  A    between atoms: _12  and  _13
REMARK    7  A    between atoms: _12  and  _15
REMARK    8  A    between atoms: _15  and  _16
REMARK    9  A    between atoms: _19  and  _21
REMARK   10  A    between atoms: _21  and  _22
REMARK   11  A    between atoms: _21  and  _24
REMARK   12  A    between atoms: _24  and  _25
REMARK   13  A    between atoms: _25  and  _26
REMARK   14  A    between atoms: _29  and  _31
REMARK   15  A    between atoms: _31  and  _32
REMARK   16  A    between atoms: _31  and  _34
REMARK   17  A    between atoms: _34  and  _35
REMARK   18  A    between atoms: _35  and  _36
REMARK   19  A    between atoms: _39  and  _41
REMARK   20  A    between atoms: _41  and  _42
REMARK   21  A    between atoms: _41  and  _44
REMARK   22  A    between atoms: _44  and  _45
REMARK   23  A    between atoms: _50  and  _51
REMARK   24  A    between atoms: _53  and  _55
REMARK   25  A    between atoms: _55  and  _56
REMARK   26  A    between atoms: _55  and  _58
REMARK   27  A    between atoms: _58  and  _59
REMARK   28  A    between atoms: _64  and  _66
REMARK   29  A    between atoms: _66  and  _67
REMARK   30  A    between atoms: _66  and  _69
REMARK   31  A    between atoms: _69  and  _70
REMARK   32  A    between atoms: _73  and  _75
REMARK   33  A    between atoms: _75  and  _76
REMARK   34  A    between atoms: _75  and  _78
REMARK   35  A    between atoms: _78  and  _79
REMARK   36  A    between atoms: _82  and  _84
REMARK   37  A    between atoms: _84  and  _85
REMARK   38  A    between atoms: _87  and  _89
REMARK   39  A    between atoms: _89  and  _90
REMARK   40  A    between atoms: _89  and  _92
REMARK   41  A    between atoms: _92  and  _93
REMARK   42  A    between atoms: _95  and  _97
REMARK   43  A    between atoms: _97  and  _98
REMARK   44  A    between atoms: _97  and  _100
REMARK   45  A    between atoms: _100  and  _101
REMARK   46  A    between atoms: _104  and  _106
REMARK   47  A    between atoms: _106  and  _107
REMARK   48  A    between atoms: _106  and  _109
REMARK   49  A    between atoms: _109  and  _110
REMARK   50  A    between atoms: _112  and  _114
REMARK   51  A    between atoms: _114  and  _115
REMARK   52  A    between atoms: _114  and  _117
REMARK   53  A    between atoms: _117  and  _118
REMARK   54  A    between atoms: _123  and  _124
REMARK   55  A    between atoms: _126  and  _128
REMARK   56  A    between atoms: _128  and  _129
REMARK   57  A    between atoms: _131  and  _133
REMARK   58  A    between atoms: _133  and  _134
REMARK   59  A    between atoms: _133  and  _136
REMARK   60  A    between atoms: _136  and  _137
REMARK   61  A    between atoms: _140  and  _142
REMARK   62  A    between atoms: _142  and  _143
REMARK   63  A    between atoms: _145  and  _147
REMARK   64  A    between atoms: _147  and  _148
REMARK   65  A    between atoms: _147  and  _150
REMARK   66  A    between atoms: _150  and  _151
REMARK   67  A    between atoms: _153  and  _155
REMARK   68  A    between atoms: _155  and  _156
REMARK   69  A    between atoms: _155  and  _158
REMARK   70  A    between atoms: _158  and  _159
REMARK   71  A    between atoms: _159  and  _160
REMARK   72  A    between atoms: _165  and  _167
REMARK   73  A    between atoms: _167  and  _168
REMARK   74  A    between atoms: _167  and  _170
REMARK   75  A    between atoms: _170  and  _171
REMARK   76  A    between atoms: _177  and  _179
REMARK   77  A    between atoms: _179  and  _180
REMARK   78  A    between atoms: _179  and  _182
REMARK   79  A    between atoms: _182  and  _183
REMARK   80  A    between atoms: _186  and  _188
REMARK   81  A    between atoms: _188  and  _189
REMARK   82  A    between atoms: _188  and  _191
REMARK   83  A    between atoms: _191  and  _192
REMARK   84  A    between atoms: _197  and  _199
REMARK   85  A    between atoms: _199  and  _200
REMARK   86  A    between atoms: _199  and  _202
REMARK   87  A    between atoms: _202  and  _203
REMARK   88  A    between atoms: _208  and  _210
REMARK   89  A    between atoms: _210  and  _211
REMARK   90  A    between atoms: _210  and  _213
REMARK   91  A    between atoms: _213  and  _214
REMARK   92  A    between atoms: _217  and  _219
REMARK   93  A    between atoms: _219  and  _220
REMARK   94  A    between atoms: _223  and  _225
REMARK   95  A    between atoms: _225  and  _226
REMARK   96  A    between atoms: _225  and  _228
REMARK   97  A    between atoms: _228  and  _229
REMARK   98  A    between atoms: _232  and  _234
REMARK   99  A    between atoms: _234  and  _235
REMARK  100  A    between atoms: _234  and  _237
REMARK  101  A    between atoms: _237  and  _238
REMARK  102  A    between atoms: _244  and  _246
REMARK  103  A    between atoms: _246  and  _247
REMARK  104  A    between atoms: _246  and  _249
REMARK  105  A    between atoms: _249  and  _250
REMARK  106  A    between atoms: _253  and  _255
REMARK  107  A    between atoms: _255  and  _256
REMARK  108  A    between atoms: _255  and  _258
REMARK  109  A    between atoms: _258  and  _259
REMARK  110  A    between atoms: _262  and  _264
REMARK  111  A    between atoms: _264  and  _265
REMARK  112  A    between atoms: _264  and  _267
REMARK  113  A    between atoms: _267  and  _268
REMARK  114  A    between atoms: _271  and  _273
REMARK  115  A    between atoms: _273  and  _274
REMARK  116  A    between atoms: _276  and  _278
REMARK  117  A    between atoms: _278  and  _279
REMARK  118  A    between atoms: _278  and  _281
REMARK  119  A    between atoms: _281  and  _282
REMARK  120  A    between atoms: _285  and  _287
REMARK  121  A    between atoms: _287  and  _288
REMARK  122  A    between atoms: _287  and  _290
REMARK  123  A    between atoms: _290  and  _291
REMARK  124  A    between atoms: _294  and  _296
REMARK  125  A    between atoms: _296  and  _297
REMARK  126  A    between atoms: _296  and  _299
REMARK  127  A    between atoms: _299  and  _300
REMARK  128  A    between atoms: _303  and  _305
REMARK  129  A    between atoms: _305  and  _306
REMARK  130  A    between atoms: _305  and  _308
REMARK  131  A    between atoms: _308  and  _309
REMARK  132  A    between atoms: _312  and  _314
REMARK  133  A    between atoms: _314  and  _315
REMARK  134  A    between atoms: _314  and  _317
REMARK  135  A    between atoms: _317  and  _318
REMARK  136  A    between atoms: _321  and  _323
REMARK  137  A    between atoms: _323  and  _324
REMARK  138  A    between atoms: _323  and  _326
REMARK  139  A    between atoms: _326  and  _327
REMARK  140  A    between atoms: _330  and  _332
REMARK  141  A    between atoms: _332  and  _333
REMARK  142  A    between atoms: _332  and  _335
REMARK  143  A    between atoms: _335  and  _336
REMARK  144  A    between atoms: _338  and  _340
REMARK  145  A    between atoms: _340  and  _341
REMARK  146  A    between atoms: _340  and  _343
REMARK  147  A    between atoms: _343  and  _344
REMARK  148  A    between atoms: _349  and  _351
REMARK  149  A    between atoms: _351  and  _352
REMARK  150  A    between atoms: _355  and  _357
REMARK  151  A    between atoms: _357  and  _358
REMARK  152  A    between atoms: _360  and  _362
REMARK  153  A    between atoms: _362  and  _363
REMARK  154  A    between atoms: _365  and  _367
REMARK  155  A    between atoms: _367  and  _368
REMARK  156  A    between atoms: _367  and  _370
REMARK  157  A    between atoms: _370  and  _371
REMARK  158  A    between atoms: _376  and  _377
REMARK  159  A    between atoms: _379  and  _381
REMARK  160  A    between atoms: _381  and  _382
REMARK  161  A    between atoms: _381  and  _384
REMARK  162  A    between atoms: _384  and  _385
REMARK  163  A    between atoms: _390  and  _391
REMARK  164  A    between atoms: _393  and  _395
REMARK  165  A    between atoms: _395  and  _396
REMARK  166  A    between atoms: _395  and  _398
REMARK  167  A    between atoms: _398  and  _399
REMARK  168  A    between atoms: _401  and  _403
REMARK  169  A    between atoms: _403  and  _404
REMARK  170  A    between atoms: _403  and  _406
REMARK  171  A    between atoms: _406  and  _407
REMARK  172  A    between atoms: _410  and  _412
REMARK  173  A    between atoms: _412  and  _413
REMARK  174  A    between atoms: _415  and  _417
REMARK  175  A    between atoms: _417  and  _418
REMARK  176  A    between atoms: _420  and  _422
REMARK  177  A    between atoms: _422  and  _423
REMARK  178  A    between atoms: _422  and  _425
REMARK  179  A    between atoms: _425  and  _426
REMARK  180  A    between atoms: _429  and  _431
REMARK  181  A    between atoms: _431  and  _432
REMARK  182  A    between atoms: _431  and  _434
REMARK  183  A    between atoms: _434  and  _435
REMARK  184  A    between atoms: _435  and  _436
REMARK  185  A    between atoms: _441  and  _443
REMARK  186  A    between atoms: _443  and  _444
REMARK  187  A    between atoms: _443  and  _446
REMARK  188  A    between atoms: _446  and  _447
REMARK  189  A    between atoms: _449  and  _451
REMARK  190  A    between atoms: _451  and  _452
REMARK  191  A    between atoms: _451  and  _454
REMARK  192  A    between atoms: _454  and  _455
REMARK  193  A    between atoms: _460  and  _462
REMARK  194  A    between atoms: _462  and  _463
REMARK  195  A    between atoms: _462  and  _465
REMARK  196  A    between atoms: _465  and  _466
REMARK  197  A    between atoms: _468  and  _470
REMARK  198  A    between atoms: _470  and  _471
REMARK  199  A    between atoms: _473  and  _475
REMARK  200  A    between atoms: _475  and  _476
REMARK  201  A    between atoms: _475  and  _478
REMARK  202  A    between atoms: _478  and  _479
REMARK  203  A    between atoms: _482  and  _484
REMARK  204  A    between atoms: _484  and  _485
REMARK  205  A    between atoms: _484  and  _487
REMARK  206  A    between atoms: _487  and  _488
REMARK  207  A    between atoms: _494  and  _496
REMARK  208  A    between atoms: _496  and  _497
REMARK  209  A    between atoms: _496  and  _499
REMARK  210  A    between atoms: _499  and  _500
REMARK  211  A    between atoms: _502  and  _504
REMARK  212  A    between atoms: _504  and  _505
REMARK  213  A    between atoms: _504  and  _507
REMARK  214  A    between atoms: _507  and  _508
REMARK  215  A    between atoms: _511  and  _513
REMARK  216  A    between atoms: _513  and  _514
REMARK  217  A    between atoms: _516  and  _518
REMARK  218  A    between atoms: _518  and  _519
REMARK  219  A    between atoms: _518  and  _521
REMARK  220  A    between atoms: _521  and  _522
REMARK  221  A    between atoms: _525  and  _527
REMARK  222  A    between atoms: _527  and  _528
REMARK  223  A    between atoms: _527  and  _530
REMARK  224  A    between atoms: _530  and  _531
REMARK  225  A    between atoms: _533  and  _535
REMARK  226  A    between atoms: _535  and  _536
REMARK  227  A    between atoms: _538  and  _540
REMARK  228  A    between atoms: _540  and  _541
REMARK  229  A    between atoms: _540  and  _543
REMARK  230  A    between atoms: _543  and  _544
REMARK  231  A    between atoms: _549  and  _550
REMARK  232  A    between atoms: _552  and  _554
REMARK  233  A    between atoms: _554  and  _555
REMARK  234  A    between atoms: _554  and  _557
REMARK  235  A    between atoms: _557  and  _558
REMARK  236  A    between atoms: _561  and  _563
REMARK  237  A    between atoms: _563  and  _564
REMARK  238  A    between atoms: _563  and  _566
REMARK  239  A    between atoms: _566  and  _567
REMARK  240  A    between atoms: _567  and  _568
REMARK  241  A    between atoms: _574  and  _575
REMARK  242  A    between atoms: _580  and  _582
REMARK  243  A    between atoms: _582  and  _583
REMARK  244  A    between atoms: _582  and  _585
REMARK  245  A    between atoms: _585  and  _586
REMARK  246  A    between atoms: _586  and  _587
REMARK                            x       y       z     vdW  Elec       q    Type
REMARK                         _______ _______ _______ _____ _____    ______ ____
ROOT
ATOM      1  O   HOH     1      15.866   8.770  19.729  0.00  0.00    +0.000 OA
ENDROOT
TORSDOF 0
REMARK  Name = ../refined-set-2016/2wec/2wec_pocket.pdb
REMARK  246 active torsions:
REMARK  status: ('A' for Active; 'I' for Inactive)
REMARK    1  A    between atoms: _1  and  _3
REMARK    2  A    between atoms: _3  and  _4
REMARK    3  A    between atoms: _3  and  _6
REMARK    4  A    between atoms: _6  and  _7
REMARK    5  A    between atoms: _10  and  _12
REMARK    6  A    between atoms: _12  and  _13
REMARK    7  A    between atoms: _12  and  _15
REMARK    8  A    between atoms: _15  and  _16
REMARK    9  A    between atoms: _19  and  _21
REMARK   10  A    between atoms: _21  and  _22
REMARK   11  A    between atoms: _21  and  _24
REMARK   12  A    between atoms: _24  and  _25
REMARK   13  A    between atoms: _25  and  _26
REMARK   14  A    between atoms: _29  and  _31
REMARK   15  A    between atoms: _31  and  _32
REMARK   16  A    between atoms: _31  and  _34
REMARK   17  A    between atoms: _34  and  _35
REMARK   18  A    between atoms: _35  and  _36
REMARK   19  A    between atoms: _39  and  _41
REMARK   20  A    between atoms: _41  and  _42
REMARK   21  A    between atoms: _41  and  _44
REMARK   22  A    between atoms: _44  and  _45
REMARK   23  A    between atoms: _50  and  _51
REMARK   24  A    between atoms: _53  and  _55
REMARK   25  A    between atoms: _55  and  _56
REMARK   26  A    between atoms: _55  and  _58
REMARK   27  A    between atoms: _58  and  _59
REMARK   28  A    between atoms: _64  and  _66
REMARK   29  A    between atoms: _66  and  _67
REMARK   30  A    between atoms: _66  and  _69
REMARK   31  A    between atoms: _69  and  _70
REMARK   32  A    between atoms: _73  and  _75
REMARK   33  A    between atoms: _75  and  _76
REMARK   34  A    between atoms: _75  and  _78
REMARK   35  A    between atoms: _78  and  _79
REMARK   36  A    between atoms: _82  and  _84
REMARK   37  A    between atoms: _84  and  _85
REMARK   38  A    between atoms: _87  and  _89
REMARK   39  A    between atoms: _89  and  _90
REMARK   40  A    between atoms: _89  and  _92
REMARK   41  A    between atoms: _92  and  _93
REMARK   42  A    between atoms: _95  and  _97
REMARK   43  A    between atoms: _97  and  _98
REMARK   44  A    between atoms: _97  and  _100
REMARK   45  A    between atoms: _100  and  _101
REMARK   46  A    between atoms: _104  and  _106
REMARK   47  A    between atoms: _106  and  _107
REMARK   48  A    between atoms: _106  and  _109
REMARK   49  A    between atoms: _109  and  _110
REMARK   50  A    between atoms: _112  and  _114
REMARK   51  A    between atoms: _114  and  _115
REMARK   52  A    between atoms: _114  and  _117
REMARK   53  A    between atoms: _117  and  _118
REMARK   54  A    between atoms: _123  and  _124
REMARK   55  A    between atoms: _126  and  _128
REMARK   56  A    between atoms: _128  and  _129
REMARK   57  A    between atoms: _131  and  _133
REMARK   58  A    between atoms: _133  and  _134
REMARK   59  A    between atoms: _133  and  _136
REMARK   60  A    between atoms: _136  and  _137
REMARK   61  A    between atoms: _140  and  _142
REMARK   62  A    between atoms: _142  and  _143
REMARK   63  A    between atoms: _145  and  _147
REMARK   64  A    between atoms: _147  and  _148
REMARK   65  A    between atoms: _147  and  _150
REMARK   66  A    between atoms: _150  and  _151
REMARK   67  A    between atoms: _153  and  _155
REMARK   68  A    between atoms: _155  and  _156
REMARK   69  A    between atoms: _155  and  _158
REMARK   70  A    between atoms: _158  and  _159
REMARK   71  A    between atoms: _159  and  _160
REMARK   72  A    between atoms: _165  and  _167
REMARK   73  A    between atoms: _167  and  _168
REMARK   74  A    between atoms: _167  and  _170
REMARK   75  A    between atoms: _170  and  _171
REMARK   76  A    between atoms: _177  and  _179
REMARK   77  A    between atoms: _179  and  _180
REMARK   78  A    between atoms: _179  and  _182
REMARK   79  A    between atoms: _182  and  _183
REMARK   80  A    between atoms: _186  and  _188
REMARK   81  A    between atoms: _188  and  _189
REMARK   82  A    between atoms: _188  and  _191
REMARK   83  A    between atoms: _191  and  _192
REMARK   84  A    between atoms: _197  and  _199
REMARK   85  A    between atoms: _199  and  _200
REMARK   86  A    between atoms: _199  and  _202
REMARK   87  A    between atoms: _202  and  _203
REMARK   88  A    between atoms: _208  and  _210
REMARK   89  A    between atoms: _210  and  _211
REMARK   90  A    between atoms: _210  and  _213
REMARK   91  A    between atoms: _213  and  _214
REMARK   92  A    between atoms: _217  and  _219
REMARK   93  A    between atoms: _219  and  _220
REMARK   94  A    between atoms: _223  and  _225
REMARK   95  A    between atoms: _225  and  _226
REMARK   96  A    between atoms: _225  and  _228
REMARK   97  A    between atoms: _228  and  _229
REMARK   98  A    between atoms: _232  and  _234
REMARK   99  A    between atoms: _234  and  _235
REMARK  100  A    between atoms: _234  and  _237
REMARK  101  A    between atoms: _237  and  _238
REMARK  102  A    between atoms: _244  and  _246
REMARK  103  A    between atoms: _246  and  _247
REMARK  104  A    between atoms: _246  and  _249
REMARK  105  A    between atoms: _249  and  _250
REMARK  106  A    between atoms: _253  and  _255
REMARK  107  A    between atoms: _255  and  _256
REMARK  108  A    between atoms: _255  and  _258
REMARK  109  A    between atoms: _258  and  _259
REMARK  110  A    between atoms: _262  and  _264
REMARK  111  A    between atoms: _264  and  _265
REMARK  112  A    between atoms: _264  and  _267
REMARK  113  A    between atoms: _267  and  _268
REMARK  114  A    between atoms: _271  and  _273
REMARK  115  A    between atoms: _273  and  _274
REMARK  116  A    between atoms: _276  and  _278
REMARK  117  A    between atoms: _278  and  _279
REMARK  118  A    between atoms: _278  and  _281
REMARK  119  A    between atoms: _281  and  _282
REMARK  120  A    between atoms: _285  and  _287
REMARK  121  A    between atoms: _287  and  _288
REMARK  122  A    between atoms: _287  and  _290
REMARK  123  A    between atoms: _290  and  _291
REMARK  124  A    between atoms: _294  and  _296
REMARK  125  A    between atoms: _296  and  _297
REMARK  126  A    between atoms: _296  and  _299
REMARK  127  A    between atoms: _299  and  _300
REMARK  128  A    between atoms: _303  and  _305
REMARK  129  A    between atoms: _305  and  _306
REMARK  130  A    between atoms: _305  and  _308
REMARK  131  A    between atoms: _308  and  _309
REMARK  132  A    between atoms: _312  and  _314
REMARK  133  A    between atoms: _314  and  _315
REMARK  134  A    between atoms: _314  and  _317
REMARK  135  A    between atoms: _317  and  _318
REMARK  136  A    between atoms: _321  and  _323
REMARK  137  A    between atoms: _323  and  _324
REMARK  138  A    between atoms: _323  and  _326
REMARK  139  A    between atoms: _326  and  _327
REMARK  140  A    between atoms: _330  and  _332
REMARK  141  A    between atoms: _332  and  _333
REMARK  142  A    between atoms: _332  and  _335
REMARK  143  A    between atoms: _335  and  _336
REMARK  144  A    between atoms: _338  and  _340
REMARK  145  A    between atoms: _340  and  _341
REMARK  146  A    between atoms: _340  and  _343
REMARK  147  A    between atoms: _343  and  _344
REMARK  148  A    between atoms: _349  and  _351
REMARK  149  A    between atoms: _351  and  _352
REMARK  150  A    between atoms: _355  and  _357
REMARK  151  A    between atoms: _357  and  _358
REMARK  152  A    between atoms: _360  and  _362
REMARK  153  A    between atoms: _362  and  _363
REMARK  154  A    between atoms: _365  and  _367
REMARK  155  A    between atoms: _367  and  _368
REMARK  156  A    between atoms: _367  and  _370
REMARK  157  A    between atoms: _370  and  _371
REMARK  158  A    between atoms: _376  and  _377
REMARK  159  A    between atoms: _379  and  _381
REMARK  160  A    between atoms: _381  and  _382
REMARK  161  A    between atoms: _381  and  _384
REMARK  162  A    between atoms: _384  and  _385
REMARK  163  A    between atoms: _390  and  _391
REMARK  164  A    between atoms: _393  and  _395
REMARK  165  A    between atoms: _395  and  _396
REMARK  166  A    between atoms: _395  and  _398
REMARK  167  A    between atoms: _398  and  _399
REMARK  168  A    between atoms: _401  and  _403
REMARK  169  A    between atoms: _403  and  _404
REMARK  170  A    between atoms: _403  and  _406
REMARK  171  A    between atoms: _406  and  _407
REMARK  172  A    between atoms: _410  and  _412
REMARK  173  A    between atoms: _412  and  _413
REMARK  174  A    between atoms: _415  and  _417
REMARK  175  A    between atoms: _417  and  _418
REMARK  176  A    between atoms: _420  and  _422
REMARK  177  A    between atoms: _422  and  _423
REMARK  178  A    between atoms: _422  and  _425
REMARK  179  A    between atoms: _425  and  _426
REMARK  180  A    between atoms: _429  and  _431
REMARK  181  A    between atoms: _431  and  _432
REMARK  182  A    between atoms: _431  and  _434
REMARK  183  A    between atoms: _434  and  _435
REMARK  184  A    between atoms: _435  and  _436
REMARK  185  A    between atoms: _441  and  _443
REMARK  186  A    between atoms: _443  and  _444
REMARK  187  A    between atoms: _443  and  _446
REMARK  188  A    between atoms: _446  and  _447
REMARK  189  A    between atoms: _449  and  _451
REMARK  190  A    between atoms: _451  and  _452
REMARK  191  A    between atoms: _451  and  _454
REMARK  192  A    between atoms: _454  and  _455
REMARK  193  A    between atoms: _460  and  _462
REMARK  194  A    between atoms: _462  and  _463
REMARK  195  A    between atoms: _462  and  _465
REMARK  196  A    between atoms: _465  and  _466
REMARK  197  A    between atoms: _468  and  _470
REMARK  198  A    between atoms: _470  and  _471
REMARK  199  A    between atoms: _473  and  _475
REMARK  200  A    between atoms: _475  and  _476
REMARK  201  A    between atoms: _475  and  _478
REMARK  202  A    between atoms: _478  and  _479
REMARK  203  A    between atoms: _482  and  _484
REMARK  204  A    between atoms: _484  and  _485
REMARK  205  A    between atoms: _484  and  _487
REMARK  206  A    between atoms: _487  and  _488
REMARK  207  A    between atoms: _494  and  _496
REMARK  208  A    between atoms: _496  and  _497
REMARK  209  A    between atoms: _496  and  _499
REMARK  210  A    between atoms: _499  and  _500
REMARK  211  A    between atoms: _502  and  _504
REMARK  212  A    between atoms: _504  and  _505
REMARK  213  A    between atoms: _504  and  _507
REMARK  214  A    between atoms: _507  and  _508
REMARK  215  A    between atoms: _511  and  _513
REMARK  216  A    between atoms: _513  and  _514
REMARK  217  A    between atoms: _516  and  _518
REMARK  218  A    between atoms: _518  and  _519
REMARK  219  A    between atoms: _518  and  _521
REMARK  220  A    between atoms: _521  and  _522
REMARK  221  A    between atoms: _525  and  _527
REMARK  222  A    between atoms: _527  and  _528
REMARK  223  A    between atoms: _527  and  _530
REMARK  224  A    between atoms: _530  and  _531
REMARK  225  A    between atoms: _533  and  _535
REMARK  226  A    between atoms: _535  and  _536
REMARK  227  A    between atoms: _538  and  _540
REMARK  228  A    between atoms: _540  and  _541
REMARK  229  A    between atoms: _540  and  _543
REMARK  230  A    between atoms: _543  and  _544
REMARK  231  A    between atoms: _549  and  _550
REMARK  232  A    between atoms: _552  and  _554
REMARK  233  A    between atoms: _554  and  _555
REMARK  234  A    between atoms: _554  and  _557
REMARK  235  A    between atoms: _557  and  _558
REMARK  236  A    between atoms: _561  and  _563
REMARK  237  A    between atoms: _563  and  _564
REMARK  238  A    between atoms: _563  and  _566
REMARK  239  A    between atoms: _566  and  _567
REMARK  240  A    between atoms: _567  and  _568
REMARK  241  A    between atoms: _574  and  _575
REMARK  242  A    between atoms: _580  and  _582
REMARK  243  A    between atoms: _582  and  _583
REMARK  244  A    between atoms: _582  and  _585
REMARK  245  A    between atoms: _585  and  _586
REMARK  246  A    between atoms: _586  and  _587
REMARK                            x       y       z     vdW  Elec       q    Type
REMARK                         _______ _______ _______ _____ _____    ______ ____
ROOT
ATOM      1  O   HOH     1      19.678   9.566  14.683  0.00  0.00    +0.000 OA
ENDROOT
TORSDOF 0
REMARK  Name = ../refined-set-2016/2wec/2wec_pocket.pdb
REMARK  246 active torsions:
REMARK  status: ('A' for Active; 'I' for Inactive)
REMARK    1  A    between atoms: _1  and  _3
REMARK    2  A    between atoms: _3  and  _4
REMARK    3  A    between atoms: _3  and  _6
REMARK    4  A    between atoms: _6  and  _7
REMARK    5  A    between atoms: _10  and  _12
REMARK    6  A    between atoms: _12  and  _13
REMARK    7  A    between atoms: _12  and  _15
REMARK    8  A    between atoms: _15  and  _16
REMARK    9  A    between atoms: _19  and  _21
REMARK   10  A    between atoms: _21  and  _22
REMARK   11  A    between atoms: _21  and  _24
REMARK   12  A    between atoms: _24  and  _25
REMARK   13  A    between atoms: _25  and  _26
REMARK   14  A    between atoms: _29  and  _31
REMARK   15  A    between atoms: _31  and  _32
REMARK   16  A    between atoms: _31  and  _34
REMARK   17  A    between atoms: _34  and  _35
REMARK   18  A    between atoms: _35  and  _36
REMARK   19  A    between atoms: _39  and  _41
REMARK   20  A    between atoms: _41  and  _42
REMARK   21  A    between atoms: _41  and  _44
REMARK   22  A    between atoms: _44  and  _45
REMARK   23  A    between atoms: _50  and  _51
REMARK   24  A    between atoms: _53  and  _55
REMARK   25  A    between atoms: _55  and  _56
REMARK   26  A    between atoms: _55  and  _58
REMARK   27  A    between atoms: _58  and  _59
REMARK   28  A    between atoms: _64  and  _66
REMARK   29  A    between atoms: _66  and  _67
REMARK   30  A    between atoms: _66  and  _69
REMARK   31  A    between atoms: _69  and  _70
REMARK   32  A    between atoms: _73  and  _75
REMARK   33  A    between atoms: _75  and  _76
REMARK   34  A    between atoms: _75  and  _78
REMARK   35  A    between atoms: _78  and  _79
REMARK   36  A    between atoms: _82  and  _84
REMARK   37  A    between atoms: _84  and  _85
REMARK   38  A    between atoms: _87  and  _89
REMARK   39  A    between atoms: _89  and  _90
REMARK   40  A    between atoms: _89  and  _92
REMARK   41  A    between atoms: _92  and  _93
REMARK   42  A    between atoms: _95  and  _97
REMARK   43  A    between atoms: _97  and  _98
REMARK   44  A    between atoms: _97  and  _100
REMARK   45  A    between atoms: _100  and  _101
REMARK   46  A    between atoms: _104  and  _106
REMARK   47  A    between atoms: _106  and  _107
REMARK   48  A    between atoms: _106  and  _109
REMARK   49  A    between atoms: _109  and  _110
REMARK   50  A    between atoms: _112  and  _114
REMARK   51  A    between atoms: _114  and  _115
REMARK   52  A    between atoms: _114  and  _117
REMARK   53  A    between atoms: _117  and  _118
REMARK   54  A    between atoms: _123  and  _124
REMARK   55  A    between atoms: _126  and  _128
REMARK   56  A    between atoms: _128  and  _129
REMARK   57  A    between atoms: _131  and  _133
REMARK   58  A    between atoms: _133  and  _134
REMARK   59  A    between atoms: _133  and  _136
REMARK   60  A    between atoms: _136  and  _137
REMARK   61  A    between atoms: _140  and  _142
REMARK   62  A    between atoms: _142  and  _143
REMARK   63  A    between atoms: _145  and  _147
REMARK   64  A    between atoms: _147  and  _148
REMARK   65  A    between atoms: _147  and  _150
REMARK   66  A    between atoms: _150  and  _151
REMARK   67  A    between atoms: _153  and  _155
REMARK   68  A    between atoms: _155  and  _156
REMARK   69  A    between atoms: _155  and  _158
REMARK   70  A    between atoms: _158  and  _159
REMARK   71  A    between atoms: _159  and  _160
REMARK   72  A    between atoms: _165  and  _167
REMARK   73  A    between atoms: _167  and  _168
REMARK   74  A    between atoms: _167  and  _170
REMARK   75  A    between atoms: _170  and  _171
REMARK   76  A    between atoms: _177  and  _179
REMARK   77  A    between atoms: _179  and  _180
REMARK   78  A    between atoms: _179  and  _182
REMARK   79  A    between atoms: _182  and  _183
REMARK   80  A    between atoms: _186  and  _188
REMARK   81  A    between atoms: _188  and  _189
REMARK   82  A    between atoms: _188  and  _191
REMARK   83  A    between atoms: _191  and  _192
REMARK   84  A    between atoms: _197  and  _199
REMARK   85  A    between atoms: _199  and  _200
REMARK   86  A    between atoms: _199  and  _202
REMARK   87  A    between atoms: _202  and  _203
REMARK   88  A    between atoms: _208  and  _210
REMARK   89  A    between atoms: _210  and  _211
REMARK   90  A    between atoms: _210  and  _213
REMARK   91  A    between atoms: _213  and  _214
REMARK   92  A    between atoms: _217  and  _219
REMARK   93  A    between atoms: _219  and  _220
REMARK   94  A    between atoms: _223  and  _225
REMARK   95  A    between atoms: _225  and  _226
REMARK   96  A    between atoms: _225  and  _228
REMARK   97  A    between atoms: _228  and  _229
REMARK   98  A    between atoms: _232  and  _234
REMARK   99  A    between atoms: _234  and  _235
REMARK  100  A    between atoms: _234  and  _237
REMARK  101  A    between atoms: _237  and  _238
REMARK  102  A    between atoms: _244  and  _246
REMARK  103  A    between atoms: _246  and  _247
REMARK  104  A    between atoms: _246  and  _249
REMARK  105  A    between atoms: _249  and  _250
REMARK  106  A    between atoms: _253  and  _255
REMARK  107  A    between atoms: _255  and  _256
REMARK  108  A    between atoms: _255  and  _258
REMARK  109  A    between atoms: _258  and  _259
REMARK  110  A    between atoms: _262  and  _264
REMARK  111  A    between atoms: _264  and  _265
REMARK  112  A    between atoms: _264  and  _267
REMARK  113  A    between atoms: _267  and  _268
REMARK  114  A    between atoms: _271  and  _273
REMARK  115  A    between atoms: _273  and  _274
REMARK  116  A    between atoms: _276  and  _278
REMARK  117  A    between atoms: _278  and  _279
REMARK  118  A    between atoms: _278  and  _281
REMARK  119  A    between atoms: _281  and  _282
REMARK  120  A    between atoms: _285  and  _287
REMARK  121  A    between atoms: _287  and  _288
REMARK  122  A    between atoms: _287  and  _290
REMARK  123  A    between atoms: _290  and  _291
REMARK  124  A    between atoms: _294  and  _296
REMARK  125  A    between atoms: _296  and  _297
REMARK  126  A    between atoms: _296  and  _299
REMARK  127  A    between atoms: _299  and  _300
REMARK  128  A    between atoms: _303  and  _305
REMARK  129  A    between atoms: _305  and  _306
REMARK  130  A    between atoms: _305  and  _308
REMARK  131  A    between atoms: _308  and  _309
REMARK  132  A    between atoms: _312  and  _314
REMARK  133  A    between atoms: _314  and  _315
REMARK  134  A    between atoms: _314  and  _317
REMARK  135  A    between atoms: _317  and  _318
REMARK  136  A    between atoms: _321  and  _323
REMARK  137  A    between atoms: _323  and  _324
REMARK  138  A    between atoms: _323  and  _326
REMARK  139  A    between atoms: _326  and  _327
REMARK  140  A    between atoms: _330  and  _332
REMARK  141  A    between atoms: _332  and  _333
REMARK  142  A    between atoms: _332  and  _335
REMARK  143  A    between atoms: _335  and  _336
REMARK  144  A    between atoms: _338  and  _340
REMARK  145  A    between atoms: _340  and  _341
REMARK  146  A    between atoms: _340  and  _343
REMARK  147  A    between atoms: _343  and  _344
REMARK  148  A    between atoms: _349  and  _351
REMARK  149  A    between atoms: _351  and  _352
REMARK  150  A    between atoms: _355  and  _357
REMARK  151  A    between atoms: _357  and  _358
REMARK  152  A    between atoms: _360  and  _362
REMARK  153  A    between atoms: _362  and  _363
REMARK  154  A    between atoms: _365  and  _367
REMARK  155  A    between atoms: _367  and  _368
REMARK  156  A    between atoms: _367  and  _370
REMARK  157  A    between atoms: _370  and  _371
REMARK  158  A    between atoms: _376  and  _377
REMARK  159  A    between atoms: _379  and  _381
REMARK  160  A    between atoms: _381  and  _382
REMARK  161  A    between atoms: _381  and  _384
REMARK  162  A    between atoms: _384  and  _385
REMARK  163  A    between atoms: _390  and  _391
REMARK  164  A    between atoms: _393  and  _395
REMARK  165  A    between atoms: _395  and  _396
REMARK  166  A    between atoms: _395  and  _398
REMARK  167  A    between atoms: _398  and  _399
REMARK  168  A    between atoms: _401  and  _403
REMARK  169  A    between atoms: _403  and  _404
REMARK  170  A    between atoms: _403  and  _406
REMARK  171  A    between atoms: _406  and  _407
REMARK  172  A    between atoms: _410  and  _412
REMARK  173  A    between atoms: _412  and  _413
REMARK  174  A    between atoms: _415  and  _417
REMARK  175  A    between atoms: _417  and  _418
REMARK  176  A    between atoms: _420  and  _422
REMARK  177  A    between atoms: _422  and  _423
REMARK  178  A    between atoms: _422  and  _425
REMARK  179  A    between atoms: _425  and  _426
REMARK  180  A    between atoms: _429  and  _431
REMARK  181  A    between atoms: _431  and  _432
REMARK  182  A    between atoms: _431  and  _434
REMARK  183  A    between atoms: _434  and  _435
REMARK  184  A    between atoms: _435  and  _436
REMARK  185  A    between atoms: _441  and  _443
REMARK  186  A    between atoms: _443  and  _444
REMARK  187  A    between atoms: _443  and  _446
REMARK  188  A    between atoms: _446  and  _447
REMARK  189  A    between atoms: _449  and  _451
REMARK  190  A    between atoms: _451  and  _452
REMARK  191  A    between atoms: _451  and  _454
REMARK  192  A    between atoms: _454  and  _455
REMARK  193  A    between atoms: _460  and  _462
REMARK  194  A    between atoms: _462  and  _463
REMARK  195  A    between atoms: _462  and  _465
REMARK  196  A    between atoms: _465  and  _466
REMARK  197  A    between atoms: _468  and  _470
REMARK  198  A    between atoms: _470  and  _471
REMARK  199  A    between atoms: _473  and  _475
REMARK  200  A    between atoms: _475  and  _476
REMARK  201  A    between atoms: _475  and  _478
REMARK  202  A    between atoms: _478  and  _479
REMARK  203  A    between atoms: _482  and  _484
REMARK  204  A    between atoms: _484  and  _485
REMARK  205  A    between atoms: _484  and  _487
REMARK  206  A    between atoms: _487  and  _488
REMARK  207  A    between atoms: _494  and  _496
REMARK  208  A    between atoms: _496  and  _497
REMARK  209  A    between atoms: _496  and  _499
REMARK  210  A    between atoms: _499  and  _500
REMARK  211  A    between atoms: _502  and  _504
REMARK  212  A    between atoms: _504  and  _505
REMARK  213  A    between atoms: _504  and  _507
REMARK  214  A    between atoms: _507  and  _508
REMARK  215  A    between atoms: _511  and  _513
REMARK  216  A    between atoms: _513  and  _514
REMARK  217  A    between atoms: _516  and  _518
REMARK  218  A    between atoms: _518  and  _519
REMARK  219  A    between atoms: _518  and  _521
REMARK  220  A    between atoms: _521  and  _522
REMARK  221  A    between atoms: _525  and  _527
REMARK  222  A    between atoms: _527  and  _528
REMARK  223  A    between atoms: _527  and  _530
REMARK  224  A    between atoms: _530  and  _531
REMARK  225  A    between atoms: _533  and  _535
REMARK  226  A    between atoms: _535  and  _536
REMARK  227  A    between atoms: _538  and  _540
REMARK  228  A    between atoms: _540  and  _541
REMARK  229  A    between atoms: _540  and  _543
REMARK  230  A    between atoms: _543  and  _544
REMARK  231  A    between atoms: _549  and  _550
REMARK  232  A    between atoms: _552  and  _554
REMARK  233  A    between atoms: _554  and  _555
REMARK  234  A    between atoms: _554  and  _557
REMARK  235  A    between atoms: _557  and  _558
REMARK  236  A    between atoms: _561  and  _563
REMARK  237  A    between atoms: _563  and  _564
REMARK  238  A    between atoms: _563  and  _566
REMARK  239  A    between atoms: _566  and  _567
REMARK  240  A    between atoms: _567  and  _568
REMARK  241  A    between atoms: _574  and  _575
REMARK  242  A    between atoms: _580  and  _582
REMARK  243  A    between atoms: _582  and  _583
REMARK  244  A    between atoms: _582  and  _585
REMARK  245  A    between atoms: _585  and  _586
REMARK  246  A    between atoms: _586  and  _587
REMARK                            x       y       z     vdW  Elec       q    Type
REMARK                         _______ _______ _______ _____ _____    ______ ____
ROOT
ATOM      1  O   HOH     1      14.680   8.697  26.864  0.00  0.00    +0.000 OA
ENDROOT
TORSDOF 0
REMARK  Name = ../refined-set-2016/2wec/2wec_pocket.pdb
REMARK  246 active torsions:
REMARK  status: ('A' for Active; 'I' for Inactive)
REMARK    1  A    between atoms: _1  and  _3
REMARK    2  A    between atoms: _3  and  _4
REMARK    3  A    between atoms: _3  and  _6
REMARK    4  A    between atoms: _6  and  _7
REMARK    5  A    between atoms: _10  and  _12
REMARK    6  A    between atoms: _12  and  _13
REMARK    7  A    between atoms: _12  and  _15
REMARK    8  A    between atoms: _15  and  _16
REMARK    9  A    between atoms: _19  and  _21
REMARK   10  A    between atoms: _21  and  _22
REMARK   11  A    between atoms: _21  and  _24
REMARK   12  A    between atoms: _24  and  _25
REMARK   13  A    between atoms: _25  and  _26
REMARK   14  A    between atoms: _29  and  _31
REMARK   15  A    between atoms: _31  and  _32
REMARK   16  A    between atoms: _31  and  _34
REMARK   17  A    between atoms: _34  and  _35
REMARK   18  A    between atoms: _35  and  _36
REMARK   19  A    between atoms: _39  and  _41
REMARK   20  A    between atoms: _41  and  _42
REMARK   21  A    between atoms: _41  and  _44
REMARK   22  A    between atoms: _44  and  _45
REMARK   23  A    between atoms: _50  and  _51
REMARK   24  A    between atoms: _53  and  _55
REMARK   25  A    between atoms: _55  and  _56
REMARK   26  A    between atoms: _55  and  _58
REMARK   27  A    between atoms: _58  and  _59
REMARK   28  A    between atoms: _64  and  _66
REMARK   29  A    between atoms: _66  and  _67
REMARK   30  A    between atoms: _66  and  _69
REMARK   31  A    between atoms: _69  and  _70
REMARK   32  A    between atoms: _73  and  _75
REMARK   33  A    between atoms: _75  and  _76
REMARK   34  A    between atoms: _75  and  _78
REMARK   35  A    between atoms: _78  and  _79
REMARK   36  A    between atoms: _82  and  _84
REMARK   37  A    between atoms: _84  and  _85
REMARK   38  A    between atoms: _87  and  _89
REMARK   39  A    between atoms: _89  and  _90
REMARK   40  A    between atoms: _89  and  _92
REMARK   41  A    between atoms: _92  and  _93
REMARK   42  A    between atoms: _95  and  _97
REMARK   43  A    between atoms: _97  and  _98
REMARK   44  A    between atoms: _97  and  _100
REMARK   45  A    between atoms: _100  and  _101
REMARK   46  A    between atoms: _104  and  _106
REMARK   47  A    between atoms: _106  and  _107
REMARK   48  A    between atoms: _106  and  _109
REMARK   49  A    between atoms: _109  and  _110
REMARK   50  A    between atoms: _112  and  _114
REMARK   51  A    between atoms: _114  and  _115
REMARK   52  A    between atoms: _114  and  _117
REMARK   53  A    between atoms: _117  and  _118
REMARK   54  A    between atoms: _123  and  _124
REMARK   55  A    between atoms: _126  and  _128
REMARK   56  A    between atoms: _128  and  _129
REMARK   57  A    between atoms: _131  and  _133
REMARK   58  A    between atoms: _133  and  _134
REMARK   59  A    between atoms: _133  and  _136
REMARK   60  A    between atoms: _136  and  _137
REMARK   61  A    between atoms: _140  and  _142
REMARK   62  A    between atoms: _142  and  _143
REMARK   63  A    between atoms: _145  and  _147
REMARK   64  A    between atoms: _147  and  _148
REMARK   65  A    between atoms: _147  and  _150
REMARK   66  A    between atoms: _150  and  _151
REMARK   67  A    between atoms: _153  and  _155
REMARK   68  A    between atoms: _155  and  _156
REMARK   69  A    between atoms: _155  and  _158
REMARK   70  A    between atoms: _158  and  _159
REMARK   71  A    between atoms: _159  and  _160
REMARK   72  A    between atoms: _165  and  _167
REMARK   73  A    between atoms: _167  and  _168
REMARK   74  A    between atoms: _167  and  _170
REMARK   75  A    between atoms: _170  and  _171
REMARK   76  A    between atoms: _177  and  _179
REMARK   77  A    between atoms: _179  and  _180
REMARK   78  A    between atoms: _179  and  _182
REMARK   79  A    between atoms: _182  and  _183
REMARK   80  A    between atoms: _186  and  _188
REMARK   81  A    between atoms: _188  and  _189
REMARK   82  A    between atoms: _188  and  _191
REMARK   83  A    between atoms: _191  and  _192
REMARK   84  A    between atoms: _197  and  _199
REMARK   85  A    between atoms: _199  and  _200
REMARK   86  A    between atoms: _199  and  _202
REMARK   87  A    between atoms: _202  and  _203
REMARK   88  A    between atoms: _208  and  _210
REMARK   89  A    between atoms: _210  and  _211
REMARK   90  A    between atoms: _210  and  _213
REMARK   91  A    between atoms: _213  and  _214
REMARK   92  A    between atoms: _217  and  _219
REMARK   93  A    between atoms: _219  and  _220
REMARK   94  A    between atoms: _223  and  _225
REMARK   95  A    between atoms: _225  and  _226
REMARK   96  A    between atoms: _225  and  _228
REMARK   97  A    between atoms: _228  and  _229
REMARK   98  A    between atoms: _232  and  _234
REMARK   99  A    between atoms: _234  and  _235
REMARK  100  A    between atoms: _234  and  _237
REMARK  101  A    between atoms: _237  and  _238
REMARK  102  A    between atoms: _244  and  _246
REMARK  103  A    between atoms: _246  and  _247
REMARK  104  A    between atoms: _246  and  _249
REMARK  105  A    between atoms: _249  and  _250
REMARK  106  A    between atoms: _253  and  _255
REMARK  107  A    between atoms: _255  and  _256
REMARK  108  A    between atoms: _255  and  _258
REMARK  109  A    between atoms: _258  and  _259
REMARK  110  A    between atoms: _262  and  _264
REMARK  111  A    between atoms: _264  and  _265
REMARK  112  A    between atoms: _264  and  _267
REMARK  113  A    between atoms: _267  and  _268
REMARK  114  A    between atoms: _271  and  _273
REMARK  115  A    between atoms: _273  and  _274
REMARK  116  A    between atoms: _276  and  _278
REMARK  117  A    between atoms: _278  and  _279
REMARK  118  A    between atoms: _278  and  _281
REMARK  119  A    between atoms: _281  and  _282
REMARK  120  A    between atoms: _285  and  _287
REMARK  121  A    between atoms: _287  and  _288
REMARK  122  A    between atoms: _287  and  _290
REMARK  123  A    between atoms: _290  and  _291
REMARK  124  A    between atoms: _294  and  _296
REMARK  125  A    between atoms: _296  and  _297
REMARK  126  A    between atoms: _296  and  _299
REMARK  127  A    between atoms: _299  and  _300
REMARK  128  A    between atoms: _303  and  _305
REMARK  129  A    between atoms: _305  and  _306
REMARK  130  A    between atoms: _305  and  _308
REMARK  131  A    between atoms: _308  and  _309
REMARK  132  A    between atoms: _312  and  _314
REMARK  133  A    between atoms: _314  and  _315
REMARK  134  A    between atoms: _314  and  _317
REMARK  135  A    between atoms: _317  and  _318
REMARK  136  A    between atoms: _321  and  _323
REMARK  137  A    between atoms: _323  and  _324
REMARK  138  A    between atoms: _323  and  _326
REMARK  139  A    between atoms: _326  and  _327
REMARK  140  A    between atoms: _330  and  _332
REMARK  141  A    between atoms: _332  and  _333
REMARK  142  A    between atoms: _332  and  _335
REMARK  143  A    between atoms: _335  and  _336
REMARK  144  A    between atoms: _338  and  _340
REMARK  145  A    between atoms: _340  and  _341
REMARK  146  A    between atoms: _340  and  _343
REMARK  147  A    between atoms: _343  and  _344
REMARK  148  A    between atoms: _349  and  _351
REMARK  149  A    between atoms: _351  and  _352
REMARK  150  A    between atoms: _355  and  _357
REMARK  151  A    between atoms: _357  and  _358
REMARK  152  A    between atoms: _360  and  _362
REMARK  153  A    between atoms: _362  and  _363
REMARK  154  A    between atoms: _365  and  _367
REMARK  155  A    between atoms: _367  and  _368
REMARK  156  A    between atoms: _367  and  _370
REMARK  157  A    between atoms: _370  and  _371
REMARK  158  A    between atoms: _376  and  _377
REMARK  159  A    between atoms: _379  and  _381
REMARK  160  A    between atoms: _381  and  _382
REMARK  161  A    between atoms: _381  and  _384
REMARK  162  A    between atoms: _384  and  _385
REMARK  163  A    between atoms: _390  and  _391
REMARK  164  A    between atoms: _393  and  _395
REMARK  165  A    between atoms: _395  and  _396
REMARK  166  A    between atoms: _395  and  _398
REMARK  167  A    between atoms: _398  and  _399
REMARK  168  A    between atoms: _401  and  _403
REMARK  169  A    between atoms: _403  and  _404
REMARK  170  A    between atoms: _403  and  _406
REMARK  171  A    between atoms: _406  and  _407
REMARK  172  A    between atoms: _410  and  _412
REMARK  173  A    between atoms: _412  and  _413
REMARK  174  A    between atoms: _415  and  _417
REMARK  175  A    between atoms: _417  and  _418
REMARK  176  A    between atoms: _420  and  _422
REMARK  177  A    between atoms: _422  and  _423
REMARK  178  A    between atoms: _422  and  _425
REMARK  179  A    between atoms: _425  and  _426
REMARK  180  A    between atoms: _429  and  _431
REMARK  181  A    between atoms: _431  and  _432
REMARK  182  A    between atoms: _431  and  _434
REMARK  183  A    between atoms: _434  and  _435
REMARK  184  A    between atoms: _435  and  _436
REMARK  185  A    between atoms: _441  and  _443
REMARK  186  A    between atoms: _443  and  _444
REMARK  187  A    between atoms: _443  and  _446
REMARK  188  A    between atoms: _446  and  _447
REMARK  189  A    between atoms: _449  and  _451
REMARK  190  A    between atoms: _451  and  _452
REMARK  191  A    between atoms: _451  and  _454
REMARK  192  A    between atoms: _454  and  _455
REMARK  193  A    between atoms: _460  and  _462
REMARK  194  A    between atoms: _462  and  _463
REMARK  195  A    between atoms: _462  and  _465
REMARK  196  A    between atoms: _465  and  _466
REMARK  197  A    between atoms: _468  and  _470
REMARK  198  A    between atoms: _470  and  _471
REMARK  199  A    between atoms: _473  and  _475
REMARK  200  A    between atoms: _475  and  _476
REMARK  201  A    between atoms: _475  and  _478
REMARK  202  A    between atoms: _478  and  _479
REMARK  203  A    between atoms: _482  and  _484
REMARK  204  A    between atoms: _484  and  _485
REMARK  205  A    between atoms: _484  and  _487
REMARK  206  A    between atoms: _487  and  _488
REMARK  207  A    between atoms: _494  and  _496
REMARK  208  A    between atoms: _496  and  _497
REMARK  209  A    between atoms: _496  and  _499
REMARK  210  A    between atoms: _499  and  _500
REMARK  211  A    between atoms: _502  and  _504
REMARK  212  A    between atoms: _504  and  _505
REMARK  213  A    between atoms: _504  and  _507
REMARK  214  A    between atoms: _507  and  _508
REMARK  215  A    between atoms: _511  and  _513
REMARK  216  A    between atoms: _513  and  _514
REMARK  217  A    between atoms: _516  and  _518
REMARK  218  A    between atoms: _518  and  _519
REMARK  219  A    between atoms: _518  and  _521
REMARK  220  A    between atoms: _521  and  _522
REMARK  221  A    between atoms: _525  and  _527
REMARK  222  A    between atoms: _527  and  _528
REMARK  223  A    between atoms: _527  and  _530
REMARK  224  A    between atoms: _530  and  _531
REMARK  225  A    between atoms: _533  and  _535
REMARK  226  A    between atoms: _535  and  _536
REMARK  227  A    between atoms: _538  and  _540
REMARK  228  A    between atoms: _540  and  _541
REMARK  229  A    between atoms: _540  and  _543
REMARK  230  A    between atoms: _543  and  _544
REMARK  231  A    between atoms: _549  and  _550
REMARK  232  A    between atoms: _552  and  _554
REMARK  233  A    between atoms: _554  and  _555
REMARK  234  A    between atoms: _554  and  _557
REMARK  235  A    between atoms: _557  and  _558
REMARK  236  A    between atoms: _561  and  _563
REMARK  237  A    between atoms: _563  and  _564
REMARK  238  A    between atoms: _563  and  _566
REMARK  239  A    between atoms: _566  and  _567
REMARK  240  A    between atoms: _567  and  _568
REMARK  241  A    between atoms: _574  and  _575
REMARK  242  A    between atoms: _580  and  _582
REMARK  243  A    between atoms: _582  and  _583
REMARK  244  A    between atoms: _582  and  _585
REMARK  245  A    between atoms: _585  and  _586
REMARK  246  A    between atoms: _586  and  _587
REMARK                            x       y       z     vdW  Elec       q    Type
REMARK                         _______ _______ _______ _____ _____    ______ ____
ROOT
ATOM      1  O   HOH     1      20.009   2.309  11.616  0.00  0.00    +0.000 OA
ENDROOT
TORSDOF 0
REMARK  Name = ../refined-set-2016/2wec/2wec_pocket.pdb
REMARK  246 active torsions:
REMARK  status: ('A' for Active; 'I' for Inactive)
REMARK    1  A    between atoms: _1  and  _3
REMARK    2  A    between atoms: _3  and  _4
REMARK    3  A    between atoms: _3  and  _6
REMARK    4  A    between atoms: _6  and  _7
REMARK    5  A    between atoms: _10  and  _12
REMARK    6  A    between atoms: _12  and  _13
REMARK    7  A    between atoms: _12  and  _15
REMARK    8  A    between atoms: _15  and  _16
REMARK    9  A    between atoms: _19  and  _21
REMARK   10  A    between atoms: _21  and  _22
REMARK   11  A    between atoms: _21  and  _24
REMARK   12  A    between atoms: _24  and  _25
REMARK   13  A    between atoms: _25  and  _26
REMARK   14  A    between atoms: _29  and  _31
REMARK   15  A    between atoms: _31  and  _32
REMARK   16  A    between atoms: _31  and  _34
REMARK   17  A    between atoms: _34  and  _35
REMARK   18  A    between atoms: _35  and  _36
REMARK   19  A    between atoms: _39  and  _41
REMARK   20  A    between atoms: _41  and  _42
REMARK   21  A    between atoms: _41  and  _44
REMARK   22  A    between atoms: _44  and  _45
REMARK   23  A    between atoms: _50  and  _51
REMARK   24  A    between atoms: _53  and  _55
REMARK   25  A    between atoms: _55  and  _56
REMARK   26  A    between atoms: _55  and  _58
REMARK   27  A    between atoms: _58  and  _59
REMARK   28  A    between atoms: _64  and  _66
REMARK   29  A    between atoms: _66  and  _67
REMARK   30  A    between atoms: _66  and  _69
REMARK   31  A    between atoms: _69  and  _70
REMARK   32  A    between atoms: _73  and  _75
REMARK   33  A    between atoms: _75  and  _76
REMARK   34  A    between atoms: _75  and  _78
REMARK   35  A    between atoms: _78  and  _79
REMARK   36  A    between atoms: _82  and  _84
REMARK   37  A    between atoms: _84  and  _85
REMARK   38  A    between atoms: _87  and  _89
REMARK   39  A    between atoms: _89  and  _90
REMARK   40  A    between atoms: _89  and  _92
REMARK   41  A    between atoms: _92  and  _93
REMARK   42  A    between atoms: _95  and  _97
REMARK   43  A    between atoms: _97  and  _98
REMARK   44  A    between atoms: _97  and  _100
REMARK   45  A    between atoms: _100  and  _101
REMARK   46  A    between atoms: _104  and  _106
REMARK   47  A    between atoms: _106  and  _107
REMARK   48  A    between atoms: _106  and  _109
REMARK   49  A    between atoms: _109  and  _110
REMARK   50  A    between atoms: _112  and  _114
REMARK   51  A    between atoms: _114  and  _115
REMARK   52  A    between atoms: _114  and  _117
REMARK   53  A    between atoms: _117  and  _118
REMARK   54  A    between atoms: _123  and  _124
REMARK   55  A    between atoms: _126  and  _128
REMARK   56  A    between atoms: _128  and  _129
REMARK   57  A    between atoms: _131  and  _133
REMARK   58  A    between atoms: _133  and  _134
REMARK   59  A    between atoms: _133  and  _136
REMARK   60  A    between atoms: _136  and  _137
REMARK   61  A    between atoms: _140  and  _142
REMARK   62  A    between atoms: _142  and  _143
REMARK   63  A    between atoms: _145  and  _147
REMARK   64  A    between atoms: _147  and  _148
REMARK   65  A    between atoms: _147  and  _150
REMARK   66  A    between atoms: _150  and  _151
REMARK   67  A    between atoms: _153  and  _155
REMARK   68  A    between atoms: _155  and  _156
REMARK   69  A    between atoms: _155  and  _158
REMARK   70  A    between atoms: _158  and  _159
REMARK   71  A    between atoms: _159  and  _160
REMARK   72  A    between atoms: _165  and  _167
REMARK   73  A    between atoms: _167  and  _168
REMARK   74  A    between atoms: _167  and  _170
REMARK   75  A    between atoms: _170  and  _171
REMARK   76  A    between atoms: _177  and  _179
REMARK   77  A    between atoms: _179  and  _180
REMARK   78  A    between atoms: _179  and  _182
REMARK   79  A    between atoms: _182  and  _183
REMARK   80  A    between atoms: _186  and  _188
REMARK   81  A    between atoms: _188  and  _189
REMARK   82  A    between atoms: _188  and  _191
REMARK   83  A    between atoms: _191  and  _192
REMARK   84  A    between atoms: _197  and  _199
REMARK   85  A    between atoms: _199  and  _200
REMARK   86  A    between atoms: _199  and  _202
REMARK   87  A    between atoms: _202  and  _203
REMARK   88  A    between atoms: _208  and  _210
REMARK   89  A    between atoms: _210  and  _211
REMARK   90  A    between atoms: _210  and  _213
REMARK   91  A    between atoms: _213  and  _214
REMARK   92  A    between atoms: _217  and  _219
REMARK   93  A    between atoms: _219  and  _220
REMARK   94  A    between atoms: _223  and  _225
REMARK   95  A    between atoms: _225  and  _226
REMARK   96  A    between atoms: _225  and  _228
REMARK   97  A    between atoms: _228  and  _229
REMARK   98  A    between atoms: _232  and  _234
REMARK   99  A    between atoms: _234  and  _235
REMARK  100  A    between atoms: _234  and  _237
REMARK  101  A    between atoms: _237  and  _238
REMARK  102  A    between atoms: _244  and  _246
REMARK  103  A    between atoms: _246  and  _247
REMARK  104  A    between atoms: _246  and  _249
REMARK  105  A    between atoms: _249  and  _250
REMARK  106  A    between atoms: _253  and  _255
REMARK  107  A    between atoms: _255  and  _256
REMARK  108  A    between atoms: _255  and  _258
REMARK  109  A    between atoms: _258  and  _259
REMARK  110  A    between atoms: _262  and  _264
REMARK  111  A    between atoms: _264  and  _265
REMARK  112  A    between atoms: _264  and  _267
REMARK  113  A    between atoms: _267  and  _268
REMARK  114  A    between atoms: _271  and  _273
REMARK  115  A    between atoms: _273  and  _274
REMARK  116  A    between atoms: _276  and  _278
REMARK  117  A    between atoms: _278  and  _279
REMARK  118  A    between atoms: _278  and  _281
REMARK  119  A    between atoms: _281  and  _282
REMARK  120  A    between atoms: _285  and  _287
REMARK  121  A    between atoms: _287  and  _288
REMARK  122  A    between atoms: _287  and  _290
REMARK  123  A    between atoms: _290  and  _291
REMARK  124  A    between atoms: _294  and  _296
REMARK  125  A    between atoms: _296  and  _297
REMARK  126  A    between atoms: _296  and  _299
REMARK  127  A    between atoms: _299  and  _300
REMARK  128  A    between atoms: _303  and  _305
REMARK  129  A    between atoms: _305  and  _306
REMARK  130  A    between atoms: _305  and  _308
REMARK  131  A    between atoms: _308  and  _309
REMARK  132  A    between atoms: _312  and  _314
REMARK  133  A    between atoms: _314  and  _315
REMARK  134  A    between atoms: _314  and  _317
REMARK  135  A    between atoms: _317  and  _318
REMARK  136  A    between atoms: _321  and  _323
REMARK  137  A    between atoms: _323  and  _324
REMARK  138  A    between atoms: _323  and  _326
REMARK  139  A    between atoms: _326  and  _327
REMARK  140  A    between atoms: _330  and  _332
REMARK  141  A    between atoms: _332  and  _333
REMARK  142  A    between atoms: _332  and  _335
REMARK  143  A    between atoms: _335  and  _336
REMARK  144  A    between atoms: _338  and  _340
REMARK  145  A    between atoms: _340  and  _341
REMARK  146  A    between atoms: _340  and  _343
REMARK  147  A    between atoms: _343  and  _344
REMARK  148  A    between atoms: _349  and  _351
REMARK  149  A    between atoms: _351  and  _352
REMARK  150  A    between atoms: _355  and  _357
REMARK  151  A    between atoms: _357  and  _358
REMARK  152  A    between atoms: _360  and  _362
REMARK  153  A    between atoms: _362  and  _363
REMARK  154  A    between atoms: _365  and  _367
REMARK  155  A    between atoms: _367  and  _368
REMARK  156  A    between atoms: _367  and  _370
REMARK  157  A    between atoms: _370  and  _371
REMARK  158  A    between atoms: _376  and  _377
REMARK  159  A    between atoms: _379  and  _381
REMARK  160  A    between atoms: _381  and  _382
REMARK  161  A    between atoms: _381  and  _384
REMARK  162  A    between atoms: _384  and  _385
REMARK  163  A    between atoms: _390  and  _391
REMARK  164  A    between atoms: _393  and  _395
REMARK  165  A    between atoms: _395  and  _396
REMARK  166  A    between atoms: _395  and  _398
REMARK  167  A    between atoms: _398  and  _399
REMARK  168  A    between atoms: _401  and  _403
REMARK  169  A    between atoms: _403  and  _404
REMARK  170  A    between atoms: _403  and  _406
REMARK  171  A    between atoms: _406  and  _407
REMARK  172  A    between atoms: _410  and  _412
REMARK  173  A    between atoms: _412  and  _413
REMARK  174  A    between atoms: _415  and  _417
REMARK  175  A    between atoms: _417  and  _418
REMARK  176  A    between atoms: _420  and  _422
REMARK  177  A    between atoms: _422  and  _423
REMARK  178  A    between atoms: _422  and  _425
REMARK  179  A    between atoms: _425  and  _426
REMARK  180  A    between atoms: _429  and  _431
REMARK  181  A    between atoms: _431  and  _432
REMARK  182  A    between atoms: _431  and  _434
REMARK  183  A    between atoms: _434  and  _435
REMARK  184  A    between atoms: _435  and  _436
REMARK  185  A    between atoms: _441  and  _443
REMARK  186  A    between atoms: _443  and  _444
REMARK  187  A    between atoms: _443  and  _446
REMARK  188  A    between atoms: _446  and  _447
REMARK  189  A    between atoms: _449  and  _451
REMARK  190  A    between atoms: _451  and  _452
REMARK  191  A    between atoms: _451  and  _454
REMARK  192  A    between atoms: _454  and  _455
REMARK  193  A    between atoms: _460  and  _462
REMARK  194  A    between atoms: _462  and  _463
REMARK  195  A    between atoms: _462  and  _465
REMARK  196  A    between atoms: _465  and  _466
REMARK  197  A    between atoms: _468  and  _470
REMARK  198  A    between atoms: _470  and  _471
REMARK  199  A    between atoms: _473  and  _475
REMARK  200  A    between atoms: _475  and  _476
REMARK  201  A    between atoms: _475  and  _478
REMARK  202  A    between atoms: _478  and  _479
REMARK  203  A    between atoms: _482  and  _484
REMARK  204  A    between atoms: _484  and  _485
REMARK  205  A    between atoms: _484  and  _487
REMARK  206  A    between atoms: _487  and  _488
REMARK  207  A    between atoms: _494  and  _496
REMARK  208  A    between atoms: _496  and  _497
REMARK  209  A    between atoms: _496  and  _499
REMARK  210  A    between atoms: _499  and  _500
REMARK  211  A    between atoms: _502  and  _504
REMARK  212  A    between atoms: _504  and  _505
REMARK  213  A    between atoms: _504  and  _507
REMARK  214  A    between atoms: _507  and  _508
REMARK  215  A    between atoms: _511  and  _513
REMARK  216  A    between atoms: _513  and  _514
REMARK  217  A    between atoms: _516  and  _518
REMARK  218  A    between atoms: _518  and  _519
REMARK  219  A    between atoms: _518  and  _521
REMARK  220  A    between atoms: _521  and  _522
REMARK  221  A    between atoms: _525  and  _527
REMARK  222  A    between atoms: _527  and  _528
REMARK  223  A    between atoms: _527  and  _530
REMARK  224  A    between atoms: _530  and  _531
REMARK  225  A    between atoms: _533  and  _535
REMARK  226  A    between atoms: _535  and  _536
REMARK  227  A    between atoms: _538  and  _540
REMARK  228  A    between atoms: _540  and  _541
REMARK  229  A    between atoms: _540  and  _543
REMARK  230  A    between atoms: _543  and  _544
REMARK  231  A    between atoms: _549  and  _550
REMARK  232  A    between atoms: _552  and  _554
REMARK  233  A    between atoms: _554  and  _555
REMARK  234  A    between atoms: _554  and  _557
REMARK  235  A    between atoms: _557  and  _558
REMARK  236  A    between atoms: _561  and  _563
REMARK  237  A    between atoms: _563  and  _564
REMARK  238  A    between atoms: _563  and  _566
REMARK  239  A    between atoms: _566  and  _567
REMARK  240  A    between atoms: _567  and  _568
REMARK  241  A    between atoms: _574  and  _575
REMARK  242  A    between atoms: _580  and  _582
REMARK  243  A    between atoms: _582  and  _583
REMARK  244  A    between atoms: _582  and  _585
REMARK  245  A    between atoms: _585  and  _586
REMARK  246  A    between atoms: _586  and  _587
REMARK                            x       y       z     vdW  Elec       q    Type
REMARK                         _______ _______ _______ _____ _____    ______ ____
ROOT
ATOM      1  O   HOH     1      28.156  15.752  27.441  0.00  0.00    +0.000 OA
ENDROOT
TORSDOF 0
REMARK  Name = ../refined-set-2016/2wec/2wec_pocket.pdb
REMARK  246 active torsions:
REMARK  status: ('A' for Active; 'I' for Inactive)
REMARK    1  A    between atoms: _1  and  _3
REMARK    2  A    between atoms: _3  and  _4
REMARK    3  A    between atoms: _3  and  _6
REMARK    4  A    between atoms: _6  and  _7
REMARK    5  A    between atoms: _10  and  _12
REMARK    6  A    between atoms: _12  and  _13
REMARK    7  A    between atoms: _12  and  _15
REMARK    8  A    between atoms: _15  and  _16
REMARK    9  A    between atoms: _19  and  _21
REMARK   10  A    between atoms: _21  and  _22
REMARK   11  A    between atoms: _21  and  _24
REMARK   12  A    between atoms: _24  and  _25
REMARK   13  A    between atoms: _25  and  _26
REMARK   14  A    between atoms: _29  and  _31
REMARK   15  A    between atoms: _31  and  _32
REMARK   16  A    between atoms: _31  and  _34
REMARK   17  A    between atoms: _34  and  _35
REMARK   18  A    between atoms: _35  and  _36
REMARK   19  A    between atoms: _39  and  _41
REMARK   20  A    between atoms: _41  and  _42
REMARK   21  A    between atoms: _41  and  _44
REMARK   22  A    between atoms: _44  and  _45
REMARK   23  A    between atoms: _50  and  _51
REMARK   24  A    between atoms: _53  and  _55
REMARK   25  A    between atoms: _55  and  _56
REMARK   26  A    between atoms: _55  and  _58
REMARK   27  A    between atoms: _58  and  _59
REMARK   28  A    between atoms: _64  and  _66
REMARK   29  A    between atoms: _66  and  _67
REMARK   30  A    between atoms: _66  and  _69
REMARK   31  A    between atoms: _69  and  _70
REMARK   32  A    between atoms: _73  and  _75
REMARK   33  A    between atoms: _75  and  _76
REMARK   34  A    between atoms: _75  and  _78
REMARK   35  A    between atoms: _78  and  _79
REMARK   36  A    between atoms: _82  and  _84
REMARK   37  A    between atoms: _84  and  _85
REMARK   38  A    between atoms: _87  and  _89
REMARK   39  A    between atoms: _89  and  _90
REMARK   40  A    between atoms: _89  and  _92
REMARK   41  A    between atoms: _92  and  _93
REMARK   42  A    between atoms: _95  and  _97
REMARK   43  A    between atoms: _97  and  _98
REMARK   44  A    between atoms: _97  and  _100
REMARK   45  A    between atoms: _100  and  _101
REMARK   46  A    between atoms: _104  and  _106
REMARK   47  A    between atoms: _106  and  _107
REMARK   48  A    between atoms: _106  and  _109
REMARK   49  A    between atoms: _109  and  _110
REMARK   50  A    between atoms: _112  and  _114
REMARK   51  A    between atoms: _114  and  _115
REMARK   52  A    between atoms: _114  and  _117
REMARK   53  A    between atoms: _117  and  _118
REMARK   54  A    between atoms: _123  and  _124
REMARK   55  A    between atoms: _126  and  _128
REMARK   56  A    between atoms: _128  and  _129
REMARK   57  A    between atoms: _131  and  _133
REMARK   58  A    between atoms: _133  and  _134
REMARK   59  A    between atoms: _133  and  _136
REMARK   60  A    between atoms: _136  and  _137
REMARK   61  A    between atoms: _140  and  _142
REMARK   62  A    between atoms: _142  and  _143
REMARK   63  A    between atoms: _145  and  _147
REMARK   64  A    between atoms: _147  and  _148
REMARK   65  A    between atoms: _147  and  _150
REMARK   66  A    between atoms: _150  and  _151
REMARK   67  A    between atoms: _153  and  _155
REMARK   68  A    between atoms: _155  and  _156
REMARK   69  A    between atoms: _155  and  _158
REMARK   70  A    between atoms: _158  and  _159
REMARK   71  A    between atoms: _159  and  _160
REMARK   72  A    between atoms: _165  and  _167
REMARK   73  A    between atoms: _167  and  _168
REMARK   74  A    between atoms: _167  and  _170
REMARK   75  A    between atoms: _170  and  _171
REMARK   76  A    between atoms: _177  and  _179
REMARK   77  A    between atoms: _179  and  _180
REMARK   78  A    between atoms: _179  and  _182
REMARK   79  A    between atoms: _182  and  _183
REMARK   80  A    between atoms: _186  and  _188
REMARK   81  A    between atoms: _188  and  _189
REMARK   82  A    between atoms: _188  and  _191
REMARK   83  A    between atoms: _191  and  _192
REMARK   84  A    between atoms: _197  and  _199
REMARK   85  A    between atoms: _199  and  _200
REMARK   86  A    between atoms: _199  and  _202
REMARK   87  A    between atoms: _202  and  _203
REMARK   88  A    between atoms: _208  and  _210
REMARK   89  A    between atoms: _210  and  _211
REMARK   90  A    between atoms: _210  and  _213
REMARK   91  A    between atoms: _213  and  _214
REMARK   92  A    between atoms: _217  and  _219
REMARK   93  A    between atoms: _219  and  _220
REMARK   94  A    between atoms: _223  and  _225
REMARK   95  A    between atoms: _225  and  _226
REMARK   96  A    between atoms: _225  and  _228
REMARK   97  A    between atoms: _228  and  _229
REMARK   98  A    between atoms: _232  and  _234
REMARK   99  A    between atoms: _234  and  _235
REMARK  100  A    between atoms: _234  and  _237
REMARK  101  A    between atoms: _237  and  _238
REMARK  102  A    between atoms: _244  and  _246
REMARK  103  A    between atoms: _246  and  _247
REMARK  104  A    between atoms: _246  and  _249
REMARK  105  A    between atoms: _249  and  _250
REMARK  106  A    between atoms: _253  and  _255
REMARK  107  A    between atoms: _255  and  _256
REMARK  108  A    between atoms: _255  and  _258
REMARK  109  A    between atoms: _258  and  _259
REMARK  110  A    between atoms: _262  and  _264
REMARK  111  A    between atoms: _264  and  _265
REMARK  112  A    between atoms: _264  and  _267
REMARK  113  A    between atoms: _267  and  _268
REMARK  114  A    between atoms: _271  and  _273
REMARK  115  A    between atoms: _273  and  _274
REMARK  116  A    between atoms: _276  and  _278
REMARK  117  A    between atoms: _278  and  _279
REMARK  118  A    between atoms: _278  and  _281
REMARK  119  A    between atoms: _281  and  _282
REMARK  120  A    between atoms: _285  and  _287
REMARK  121  A    between atoms: _287  and  _288
REMARK  122  A    between atoms: _287  and  _290
REMARK  123  A    between atoms: _290  and  _291
REMARK  124  A    between atoms: _294  and  _296
REMARK  125  A    between atoms: _296  and  _297
REMARK  126  A    between atoms: _296  and  _299
REMARK  127  A    between atoms: _299  and  _300
REMARK  128  A    between atoms: _303  and  _305
REMARK  129  A    between atoms: _305  and  _306
REMARK  130  A    between atoms: _305  and  _308
REMARK  131  A    between atoms: _308  and  _309
REMARK  132  A    between atoms: _312  and  _314
REMARK  133  A    between atoms: _314  and  _315
REMARK  134  A    between atoms: _314  and  _317
REMARK  135  A    between atoms: _317  and  _318
REMARK  136  A    between atoms: _321  and  _323
REMARK  137  A    between atoms: _323  and  _324
REMARK  138  A    between atoms: _323  and  _326
REMARK  139  A    between atoms: _326  and  _327
REMARK  140  A    between atoms: _330  and  _332
REMARK  141  A    between atoms: _332  and  _333
REMARK  142  A    between atoms: _332  and  _335
REMARK  143  A    between atoms: _335  and  _336
REMARK  144  A    between atoms: _338  and  _340
REMARK  145  A    between atoms: _340  and  _341
REMARK  146  A    between atoms: _340  and  _343
REMARK  147  A    between atoms: _343  and  _344
REMARK  148  A    between atoms: _349  and  _351
REMARK  149  A    between atoms: _351  and  _352
REMARK  150  A    between atoms: _355  and  _357
REMARK  151  A    between atoms: _357  and  _358
REMARK  152  A    between atoms: _360  and  _362
REMARK  153  A    between atoms: _362  and  _363
REMARK  154  A    between atoms: _365  and  _367
REMARK  155  A    between atoms: _367  and  _368
REMARK  156  A    between atoms: _367  and  _370
REMARK  157  A    between atoms: _370  and  _371
REMARK  158  A    between atoms: _376  and  _377
REMARK  159  A    between atoms: _379  and  _381
REMARK  160  A    between atoms: _381  and  _382
REMARK  161  A    between atoms: _381  and  _384
REMARK  162  A    between atoms: _384  and  _385
REMARK  163  A    between atoms: _390  and  _391
REMARK  164  A    between atoms: _393  and  _395
REMARK  165  A    between atoms: _395  and  _396
REMARK  166  A    between atoms: _395  and  _398
REMARK  167  A    between atoms: _398  and  _399
REMARK  168  A    between atoms: _401  and  _403
REMARK  169  A    between atoms: _403  and  _404
REMARK  170  A    between atoms: _403  and  _406
REMARK  171  A    between atoms: _406  and  _407
REMARK  172  A    between atoms: _410  and  _412
REMARK  173  A    between atoms: _412  and  _413
REMARK  174  A    between atoms: _415  and  _417
REMARK  175  A    between atoms: _417  and  _418
REMARK  176  A    between atoms: _420  and  _422
REMARK  177  A    between atoms: _422  and  _423
REMARK  178  A    between atoms: _422  and  _425
REMARK  179  A    between atoms: _425  and  _426
REMARK  180  A    between atoms: _429  and  _431
REMARK  181  A    between atoms: _431  and  _432
REMARK  182  A    between atoms: _431  and  _434
REMARK  183  A    between atoms: _434  and  _435
REMARK  184  A    between atoms: _435  and  _436
REMARK  185  A    between atoms: _441  and  _443
REMARK  186  A    between atoms: _443  and  _444
REMARK  187  A    between atoms: _443  and  _446
REMARK  188  A    between atoms: _446  and  _447
REMARK  189  A    between atoms: _449  and  _451
REMARK  190  A    between atoms: _451  and  _452
REMARK  191  A    between atoms: _451  and  _454
REMARK  192  A    between atoms: _454  and  _455
REMARK  193  A    between atoms: _460  and  _462
REMARK  194  A    between atoms: _462  and  _463
REMARK  195  A    between atoms: _462  and  _465
REMARK  196  A    between atoms: _465  and  _466
REMARK  197  A    between atoms: _468  and  _470
REMARK  198  A    between atoms: _470  and  _471
REMARK  199  A    between atoms: _473  and  _475
REMARK  200  A    between atoms: _475  and  _476
REMARK  201  A    between atoms: _475  and  _478
REMARK  202  A    between atoms: _478  and  _479
REMARK  203  A    between atoms: _482  and  _484
REMARK  204  A    between atoms: _484  and  _485
REMARK  205  A    between atoms: _484  and  _487
REMARK  206  A    between atoms: _487  and  _488
REMARK  207  A    between atoms: _494  and  _496
REMARK  208  A    between atoms: _496  and  _497
REMARK  209  A    between atoms: _496  and  _499
REMARK  210  A    between atoms: _499  and  _500
REMARK  211  A    between atoms: _502  and  _504
REMARK  212  A    between atoms: _504  and  _505
REMARK  213  A    between atoms: _504  and  _507
REMARK  214  A    between atoms: _507  and  _508
REMARK  215  A    between atoms: _511  and  _513
REMARK  216  A    between atoms: _513  and  _514
REMARK  217  A    between atoms: _516  and  _518
REMARK  218  A    between atoms: _518  and  _519
REMARK  219  A    between atoms: _518  and  _521
REMARK  220  A    between atoms: _521  and  _522
REMARK  221  A    between atoms: _525  and  _527
REMARK  222  A    between atoms: _527  and  _528
REMARK  223  A    between atoms: _527  and  _530
REMARK  224  A    between atoms: _530  and  _531
REMARK  225  A    between atoms: _533  and  _535
REMARK  226  A    between atoms: _535  and  _536
REMARK  227  A    between atoms: _538  and  _540
REMARK  228  A    between atoms: _540  and  _541
REMARK  229  A    between atoms: _540  and  _543
REMARK  230  A    between atoms: _543  and  _544
REMARK  231  A    between atoms: _549  and  _550
REMARK  232  A    between atoms: _552  and  _554
REMARK  233  A    between atoms: _554  and  _555
REMARK  234  A    between atoms: _554  and  _557
REMARK  235  A    between atoms: _557  and  _558
REMARK  236  A    between atoms: _561  and  _563
REMARK  237  A    between atoms: _563  and  _564
REMARK  238  A    between atoms: _563  and  _566
REMARK  239  A    between atoms: _566  and  _567
REMARK  240  A    between atoms: _567  and  _568
REMARK  241  A    between atoms: _574  and  _575
REMARK  242  A    between atoms: _580  and  _582
REMARK  243  A    between atoms: _582  and  _583
REMARK  244  A    between atoms: _582  and  _585
REMARK  245  A    between atoms: _585  and  _586
REMARK  246  A    between atoms: _586  and  _587
REMARK                            x       y       z     vdW  Elec       q    Type
REMARK                         _______ _______ _______ _____ _____    ______ ____
ROOT
ATOM      1  O   HOH     1      11.825   6.436  29.851  0.00  0.00    +0.000 OA
ENDROOT
TORSDOF 0
REMARK  Name = ../refined-set-2016/2wec/2wec_pocket.pdb
REMARK  246 active torsions:
REMARK  status: ('A' for Active; 'I' for Inactive)
REMARK    1  A    between atoms: _1  and  _3
REMARK    2  A    between atoms: _3  and  _4
REMARK    3  A    between atoms: _3  and  _6
REMARK    4  A    between atoms: _6  and  _7
REMARK    5  A    between atoms: _10  and  _12
REMARK    6  A    between atoms: _12  and  _13
REMARK    7  A    between atoms: _12  and  _15
REMARK    8  A    between atoms: _15  and  _16
REMARK    9  A    between atoms: _19  and  _21
REMARK   10  A    between atoms: _21  and  _22
REMARK   11  A    between atoms: _21  and  _24
REMARK   12  A    between atoms: _24  and  _25
REMARK   13  A    between atoms: _25  and  _26
REMARK   14  A    between atoms: _29  and  _31
REMARK   15  A    between atoms: _31  and  _32
REMARK   16  A    between atoms: _31  and  _34
REMARK   17  A    between atoms: _34  and  _35
REMARK   18  A    between atoms: _35  and  _36
REMARK   19  A    between atoms: _39  and  _41
REMARK   20  A    between atoms: _41  and  _42
REMARK   21  A    between atoms: _41  and  _44
REMARK   22  A    between atoms: _44  and  _45
REMARK   23  A    between atoms: _50  and  _51
REMARK   24  A    between atoms: _53  and  _55
REMARK   25  A    between atoms: _55  and  _56
REMARK   26  A    between atoms: _55  and  _58
REMARK   27  A    between atoms: _58  and  _59
REMARK   28  A    between atoms: _64  and  _66
REMARK   29  A    between atoms: _66  and  _67
REMARK   30  A    between atoms: _66  and  _69
REMARK   31  A    between atoms: _69  and  _70
REMARK   32  A    between atoms: _73  and  _75
REMARK   33  A    between atoms: _75  and  _76
REMARK   34  A    between atoms: _75  and  _78
REMARK   35  A    between atoms: _78  and  _79
REMARK   36  A    between atoms: _82  and  _84
REMARK   37  A    between atoms: _84  and  _85
REMARK   38  A    between atoms: _87  and  _89
REMARK   39  A    between atoms: _89  and  _90
REMARK   40  A    between atoms: _89  and  _92
REMARK   41  A    between atoms: _92  and  _93
REMARK   42  A    between atoms: _95  and  _97
REMARK   43  A    between atoms: _97  and  _98
REMARK   44  A    between atoms: _97  and  _100
REMARK   45  A    between atoms: _100  and  _101
REMARK   46  A    between atoms: _104  and  _106
REMARK   47  A    between atoms: _106  and  _107
REMARK   48  A    between atoms: _106  and  _109
REMARK   49  A    between atoms: _109  and  _110
REMARK   50  A    between atoms: _112  and  _114
REMARK   51  A    between atoms: _114  and  _115
REMARK   52  A    between atoms: _114  and  _117
REMARK   53  A    between atoms: _117  and  _118
REMARK   54  A    between atoms: _123  and  _124
REMARK   55  A    between atoms: _126  and  _128
REMARK   56  A    between atoms: _128  and  _129
REMARK   57  A    between atoms: _131  and  _133
REMARK   58  A    between atoms: _133  and  _134
REMARK   59  A    between atoms: _133  and  _136
REMARK   60  A    between atoms: _136  and  _137
REMARK   61  A    between atoms: _140  and  _142
REMARK   62  A    between atoms: _142  and  _143
REMARK   63  A    between atoms: _145  and  _147
REMARK   64  A    between atoms: _147  and  _148
REMARK   65  A    between atoms: _147  and  _150
REMARK   66  A    between atoms: _150  and  _151
REMARK   67  A    between atoms: _153  and  _155
REMARK   68  A    between atoms: _155  and  _156
REMARK   69  A    between atoms: _155  and  _158
REMARK   70  A    between atoms: _158  and  _159
REMARK   71  A    between atoms: _159  and  _160
REMARK   72  A    between atoms: _165  and  _167
REMARK   73  A    between atoms: _167  and  _168
REMARK   74  A    between atoms: _167  and  _170
REMARK   75  A    between atoms: _170  and  _171
REMARK   76  A    between atoms: _177  and  _179
REMARK   77  A    between atoms: _179  and  _180
REMARK   78  A    between atoms: _179  and  _182
REMARK   79  A    between atoms: _182  and  _183
REMARK   80  A    between atoms: _186  and  _188
REMARK   81  A    between atoms: _188  and  _189
REMARK   82  A    between atoms: _188  and  _191
REMARK   83  A    between atoms: _191  and  _192
REMARK   84  A    between atoms: _197  and  _199
REMARK   85  A    between atoms: _199  and  _200
REMARK   86  A    between atoms: _199  and  _202
REMARK   87  A    between atoms: _202  and  _203
REMARK   88  A    between atoms: _208  and  _210
REMARK   89  A    between atoms: _210  and  _211
REMARK   90  A    between atoms: _210  and  _213
REMARK   91  A    between atoms: _213  and  _214
REMARK   92  A    between atoms: _217  and  _219
REMARK   93  A    between atoms: _219  and  _220
REMARK   94  A    between atoms: _223  and  _225
REMARK   95  A    between atoms: _225  and  _226
REMARK   96  A    between atoms: _225  and  _228
REMARK   97  A    between atoms: _228  and  _229
REMARK   98  A    between atoms: _232  and  _234
REMARK   99  A    between atoms: _234  and  _235
REMARK  100  A    between atoms: _234  and  _237
REMARK  101  A    between atoms: _237  and  _238
REMARK  102  A    between atoms: _244  and  _246
REMARK  103  A    between atoms: _246  and  _247
REMARK  104  A    between atoms: _246  and  _249
REMARK  105  A    between atoms: _249  and  _250
REMARK  106  A    between atoms: _253  and  _255
REMARK  107  A    between atoms: _255  and  _256
REMARK  108  A    between atoms: _255  and  _258
REMARK  109  A    between atoms: _258  and  _259
REMARK  110  A    between atoms: _262  and  _264
REMARK  111  A    between atoms: _264  and  _265
REMARK  112  A    between atoms: _264  and  _267
REMARK  113  A    between atoms: _267  and  _268
REMARK  114  A    between atoms: _271  and  _273
REMARK  115  A    between atoms: _273  and  _274
REMARK  116  A    between atoms: _276  and  _278
REMARK  117  A    between atoms: _278  and  _279
REMARK  118  A    between atoms: _278  and  _281
REMARK  119  A    between atoms: _281  and  _282
REMARK  120  A    between atoms: _285  and  _287
REMARK  121  A    between atoms: _287  and  _288
REMARK  122  A    between atoms: _287  and  _290
REMARK  123  A    between atoms: _290  and  _291
REMARK  124  A    between atoms: _294  and  _296
REMARK  125  A    between atoms: _296  and  _297
REMARK  126  A    between atoms: _296  and  _299
REMARK  127  A    between atoms: _299  and  _300
REMARK  128  A    between atoms: _303  and  _305
REMARK  129  A    between atoms: _305  and  _306
REMARK  130  A    between atoms: _305  and  _308
REMARK  131  A    between atoms: _308  and  _309
REMARK  132  A    between atoms: _312  and  _314
REMARK  133  A    between atoms: _314  and  _315
REMARK  134  A    between atoms: _314  and  _317
REMARK  135  A    between atoms: _317  and  _318
REMARK  136  A    between atoms: _321  and  _323
REMARK  137  A    between atoms: _323  and  _324
REMARK  138  A    between atoms: _323  and  _326
REMARK  139  A    between atoms: _326  and  _327
REMARK  140  A    between atoms: _330  and  _332
REMARK  141  A    between atoms: _332  and  _333
REMARK  142  A    between atoms: _332  and  _335
REMARK  143  A    between atoms: _335  and  _336
REMARK  144  A    between atoms: _338  and  _340
REMARK  145  A    between atoms: _340  and  _341
REMARK  146  A    between atoms: _340  and  _343
REMARK  147  A    between atoms: _343  and  _344
REMARK  148  A    between atoms: _349  and  _351
REMARK  149  A    between atoms: _351  and  _352
REMARK  150  A    between atoms: _355  and  _357
REMARK  151  A    between atoms: _357  and  _358
REMARK  152  A    between atoms: _360  and  _362
REMARK  153  A    between atoms: _362  and  _363
REMARK  154  A    between atoms: _365  and  _367
REMARK  155  A    between atoms: _367  and  _368
REMARK  156  A    between atoms: _367  and  _370
REMARK  157  A    between atoms: _370  and  _371
REMARK  158  A    between atoms: _376  and  _377
REMARK  159  A    between atoms: _379  and  _381
REMARK  160  A    between atoms: _381  and  _382
REMARK  161  A    between atoms: _381  and  _384
REMARK  162  A    between atoms: _384  and  _385
REMARK  163  A    between atoms: _390  and  _391
REMARK  164  A    between atoms: _393  and  _395
REMARK  165  A    between atoms: _395  and  _396
REMARK  166  A    between atoms: _395  and  _398
REMARK  167  A    between atoms: _398  and  _399
REMARK  168  A    between atoms: _401  and  _403
REMARK  169  A    between atoms: _403  and  _404
REMARK  170  A    between atoms: _403  and  _406
REMARK  171  A    between atoms: _406  and  _407
REMARK  172  A    between atoms: _410  and  _412
REMARK  173  A    between atoms: _412  and  _413
REMARK  174  A    between atoms: _415  and  _417
REMARK  175  A    between atoms: _417  and  _418
REMARK  176  A    between atoms: _420  and  _422
REMARK  177  A    between atoms: _422  and  _423
REMARK  178  A    between atoms: _422  and  _425
REMARK  179  A    between atoms: _425  and  _426
REMARK  180  A    between atoms: _429  and  _431
REMARK  181  A    between atoms: _431  and  _432
REMARK  182  A    between atoms: _431  and  _434
REMARK  183  A    between atoms: _434  and  _435
REMARK  184  A    between atoms: _435  and  _436
REMARK  185  A    between atoms: _441  and  _443
REMARK  186  A    between atoms: _443  and  _444
REMARK  187  A    between atoms: _443  and  _446
REMARK  188  A    between atoms: _446  and  _447
REMARK  189  A    between atoms: _449  and  _451
REMARK  190  A    between atoms: _451  and  _452
REMARK  191  A    between atoms: _451  and  _454
REMARK  192  A    between atoms: _454  and  _455
REMARK  193  A    between atoms: _460  and  _462
REMARK  194  A    between atoms: _462  and  _463
REMARK  195  A    between atoms: _462  and  _465
REMARK  196  A    between atoms: _465  and  _466
REMARK  197  A    between atoms: _468  and  _470
REMARK  198  A    between atoms: _470  and  _471
REMARK  199  A    between atoms: _473  and  _475
REMARK  200  A    between atoms: _475  and  _476
REMARK  201  A    between atoms: _475  and  _478
REMARK  202  A    between atoms: _478  and  _479
REMARK  203  A    between atoms: _482  and  _484
REMARK  204  A    between atoms: _484  and  _485
REMARK  205  A    between atoms: _484  and  _487
REMARK  206  A    between atoms: _487  and  _488
REMARK  207  A    between atoms: _494  and  _496
REMARK  208  A    between atoms: _496  and  _497
REMARK  209  A    between atoms: _496  and  _499
REMARK  210  A    between atoms: _499  and  _500
REMARK  211  A    between atoms: _502  and  _504
REMARK  212  A    between atoms: _504  and  _505
REMARK  213  A    between atoms: _504  and  _507
REMARK  214  A    between atoms: _507  and  _508
REMARK  215  A    between atoms: _511  and  _513
REMARK  216  A    between atoms: _513  and  _514
REMARK  217  A    between atoms: _516  and  _518
REMARK  218  A    between atoms: _518  and  _519
REMARK  219  A    between atoms: _518  and  _521
REMARK  220  A    between atoms: _521  and  _522
REMARK  221  A    between atoms: _525  and  _527
REMARK  222  A    between atoms: _527  and  _528
REMARK  223  A    between atoms: _527  and  _530
REMARK  224  A    between atoms: _530  and  _531
REMARK  225  A    between atoms: _533  and  _535
REMARK  226  A    between atoms: _535  and  _536
REMARK  227  A    between atoms: _538  and  _540
REMARK  228  A    between atoms: _540  and  _541
REMARK  229  A    between atoms: _540  and  _543
REMARK  230  A    between atoms: _543  and  _544
REMARK  231  A    between atoms: _549  and  _550
REMARK  232  A    between atoms: _552  and  _554
REMARK  233  A    between atoms: _554  and  _555
REMARK  234  A    between atoms: _554  and  _557
REMARK  235  A    between atoms: _557  and  _558
REMARK  236  A    between atoms: _561  and  _563
REMARK  237  A    between atoms: _563  and  _564
REMARK  238  A    between atoms: _563  and  _566
REMARK  239  A    between atoms: _566  and  _567
REMARK  240  A    between atoms: _567  and  _568
REMARK  241  A    between atoms: _574  and  _575
REMARK  242  A    between atoms: _580  and  _582
REMARK  243  A    between atoms: _582  and  _583
REMARK  244  A    between atoms: _582  and  _585
REMARK  245  A    between atoms: _585  and  _586
REMARK  246  A    between atoms: _586  and  _587
REMARK                            x       y       z     vdW  Elec       q    Type
REMARK                         _______ _______ _______ _____ _____    ______ ____
ROOT
ATOM      1  O   HOH     1      22.837  12.758  20.696  0.00  0.00    +0.000 OA
ENDROOT
TORSDOF 0
REMARK  Name = ../refined-set-2016/2wec/2wec_pocket.pdb
REMARK  246 active torsions:
REMARK  status: ('A' for Active; 'I' for Inactive)
REMARK    1  A    between atoms: _1  and  _3
REMARK    2  A    between atoms: _3  and  _4
REMARK    3  A    between atoms: _3  and  _6
REMARK    4  A    between atoms: _6  and  _7
REMARK    5  A    between atoms: _10  and  _12
REMARK    6  A    between atoms: _12  and  _13
REMARK    7  A    between atoms: _12  and  _15
REMARK    8  A    between atoms: _15  and  _16
REMARK    9  A    between atoms: _19  and  _21
REMARK   10  A    between atoms: _21  and  _22
REMARK   11  A    between atoms: _21  and  _24
REMARK   12  A    between atoms: _24  and  _25
REMARK   13  A    between atoms: _25  and  _26
REMARK   14  A    between atoms: _29  and  _31
REMARK   15  A    between atoms: _31  and  _32
REMARK   16  A    between atoms: _31  and  _34
REMARK   17  A    between atoms: _34  and  _35
REMARK   18  A    between atoms: _35  and  _36
REMARK   19  A    between atoms: _39  and  _41
REMARK   20  A    between atoms: _41  and  _42
REMARK   21  A    between atoms: _41  and  _44
REMARK   22  A    between atoms: _44  and  _45
REMARK   23  A    between atoms: _50  and  _51
REMARK   24  A    between atoms: _53  and  _55
REMARK   25  A    between atoms: _55  and  _56
REMARK   26  A    between atoms: _55  and  _58
REMARK   27  A    between atoms: _58  and  _59
REMARK   28  A    between atoms: _64  and  _66
REMARK   29  A    between atoms: _66  and  _67
REMARK   30  A    between atoms: _66  and  _69
REMARK   31  A    between atoms: _69  and  _70
REMARK   32  A    between atoms: _73  and  _75
REMARK   33  A    between atoms: _75  and  _76
REMARK   34  A    between atoms: _75  and  _78
REMARK   35  A    between atoms: _78  and  _79
REMARK   36  A    between atoms: _82  and  _84
REMARK   37  A    between atoms: _84  and  _85
REMARK   38  A    between atoms: _87  and  _89
REMARK   39  A    between atoms: _89  and  _90
REMARK   40  A    between atoms: _89  and  _92
REMARK   41  A    between atoms: _92  and  _93
REMARK   42  A    between atoms: _95  and  _97
REMARK   43  A    between atoms: _97  and  _98
REMARK   44  A    between atoms: _97  and  _100
REMARK   45  A    between atoms: _100  and  _101
REMARK   46  A    between atoms: _104  and  _106
REMARK   47  A    between atoms: _106  and  _107
REMARK   48  A    between atoms: _106  and  _109
REMARK   49  A    between atoms: _109  and  _110
REMARK   50  A    between atoms: _112  and  _114
REMARK   51  A    between atoms: _114  and  _115
REMARK   52  A    between atoms: _114  and  _117
REMARK   53  A    between atoms: _117  and  _118
REMARK   54  A    between atoms: _123  and  _124
REMARK   55  A    between atoms: _126  and  _128
REMARK   56  A    between atoms: _128  and  _129
REMARK   57  A    between atoms: _131  and  _133
REMARK   58  A    between atoms: _133  and  _134
REMARK   59  A    between atoms: _133  and  _136
REMARK   60  A    between atoms: _136  and  _137
REMARK   61  A    between atoms: _140  and  _142
REMARK   62  A    between atoms: _142  and  _143
REMARK   63  A    between atoms: _145  and  _147
REMARK   64  A    between atoms: _147  and  _148
REMARK   65  A    between atoms: _147  and  _150
REMARK   66  A    between atoms: _150  and  _151
REMARK   67  A    between atoms: _153  and  _155
REMARK   68  A    between atoms: _155  and  _156
REMARK   69  A    between atoms: _155  and  _158
REMARK   70  A    between atoms: _158  and  _159
REMARK   71  A    between atoms: _159  and  _160
REMARK   72  A    between atoms: _165  and  _167
REMARK   73  A    between atoms: _167  and  _168
REMARK   74  A    between atoms: _167  and  _170
REMARK   75  A    between atoms: _170  and  _171
REMARK   76  A    between atoms: _177  and  _179
REMARK   77  A    between atoms: _179  and  _180
REMARK   78  A    between atoms: _179  and  _182
REMARK   79  A    between atoms: _182  and  _183
REMARK   80  A    between atoms: _186  and  _188
REMARK   81  A    between atoms: _188  and  _189
REMARK   82  A    between atoms: _188  and  _191
REMARK   83  A    between atoms: _191  and  _192
REMARK   84  A    between atoms: _197  and  _199
REMARK   85  A    between atoms: _199  and  _200
REMARK   86  A    between atoms: _199  and  _202
REMARK   87  A    between atoms: _202  and  _203
REMARK   88  A    between atoms: _208  and  _210
REMARK   89  A    between atoms: _210  and  _211
REMARK   90  A    between atoms: _210  and  _213
REMARK   91  A    between atoms: _213  and  _214
REMARK   92  A    between atoms: _217  and  _219
REMARK   93  A    between atoms: _219  and  _220
REMARK   94  A    between atoms: _223  and  _225
REMARK   95  A    between atoms: _225  and  _226
REMARK   96  A    between atoms: _225  and  _228
REMARK   97  A    between atoms: _228  and  _229
REMARK   98  A    between atoms: _232  and  _234
REMARK   99  A    between atoms: _234  and  _235
REMARK  100  A    between atoms: _234  and  _237
REMARK  101  A    between atoms: _237  and  _238
REMARK  102  A    between atoms: _244  and  _246
REMARK  103  A    between atoms: _246  and  _247
REMARK  104  A    between atoms: _246  and  _249
REMARK  105  A    between atoms: _249  and  _250
REMARK  106  A    between atoms: _253  and  _255
REMARK  107  A    between atoms: _255  and  _256
REMARK  108  A    between atoms: _255  and  _258
REMARK  109  A    between atoms: _258  and  _259
REMARK  110  A    between atoms: _262  and  _264
REMARK  111  A    between atoms: _264  and  _265
REMARK  112  A    between atoms: _264  and  _267
REMARK  113  A    between atoms: _267  and  _268
REMARK  114  A    between atoms: _271  and  _273
REMARK  115  A    between atoms: _273  and  _274
REMARK  116  A    between atoms: _276  and  _278
REMARK  117  A    between atoms: _278  and  _279
REMARK  118  A    between atoms: _278  and  _281
REMARK  119  A    between atoms: _281  and  _282
REMARK  120  A    between atoms: _285  and  _287
REMARK  121  A    between atoms: _287  and  _288
REMARK  122  A    between atoms: _287  and  _290
REMARK  123  A    between atoms: _290  and  _291
REMARK  124  A    between atoms: _294  and  _296
REMARK  125  A    between atoms: _296  and  _297
REMARK  126  A    between atoms: _296  and  _299
REMARK  127  A    between atoms: _299  and  _300
REMARK  128  A    between atoms: _303  and  _305
REMARK  129  A    between atoms: _305  and  _306
REMARK  130  A    between atoms: _305  and  _308
REMARK  131  A    between atoms: _308  and  _309
REMARK  132  A    between atoms: _312  and  _314
REMARK  133  A    between atoms: _314  and  _315
REMARK  134  A    between atoms: _314  and  _317
REMARK  135  A    between atoms: _317  and  _318
REMARK  136  A    between atoms: _321  and  _323
REMARK  137  A    between atoms: _323  and  _324
REMARK  138  A    between atoms: _323  and  _326
REMARK  139  A    between atoms: _326  and  _327
REMARK  140  A    between atoms: _330  and  _332
REMARK  141  A    between atoms: _332  and  _333
REMARK  142  A    between atoms: _332  and  _335
REMARK  143  A    between atoms: _335  and  _336
REMARK  144  A    between atoms: _338  and  _340
REMARK  145  A    between atoms: _340  and  _341
REMARK  146  A    between atoms: _340  and  _343
REMARK  147  A    between atoms: _343  and  _344
REMARK  148  A    between atoms: _349  and  _351
REMARK  149  A    between atoms: _351  and  _352
REMARK  150  A    between atoms: _355  and  _357
REMARK  151  A    between atoms: _357  and  _358
REMARK  152  A    between atoms: _360  and  _362
REMARK  153  A    between atoms: _362  and  _363
REMARK  154  A    between atoms: _365  and  _367
REMARK  155  A    between atoms: _367  and  _368
REMARK  156  A    between atoms: _367  and  _370
REMARK  157  A    between atoms: _370  and  _371
REMARK  158  A    between atoms: _376  and  _377
REMARK  159  A    between atoms: _379  and  _381
REMARK  160  A    between atoms: _381  and  _382
REMARK  161  A    between atoms: _381  and  _384
REMARK  162  A    between atoms: _384  and  _385
REMARK  163  A    between atoms: _390  and  _391
REMARK  164  A    between atoms: _393  and  _395
REMARK  165  A    between atoms: _395  and  _396
REMARK  166  A    between atoms: _395  and  _398
REMARK  167  A    between atoms: _398  and  _399
REMARK  168  A    between atoms: _401  and  _403
REMARK  169  A    between atoms: _403  and  _404
REMARK  170  A    between atoms: _403  and  _406
REMARK  171  A    between atoms: _406  and  _407
REMARK  172  A    between atoms: _410  and  _412
REMARK  173  A    between atoms: _412  and  _413
REMARK  174  A    between atoms: _415  and  _417
REMARK  175  A    between atoms: _417  and  _418
REMARK  176  A    between atoms: _420  and  _422
REMARK  177  A    between atoms: _422  and  _423
REMARK  178  A    between atoms: _422  and  _425
REMARK  179  A    between atoms: _425  and  _426
REMARK  180  A    between atoms: _429  and  _431
REMARK  181  A    between atoms: _431  and  _432
REMARK  182  A    between atoms: _431  and  _434
REMARK  183  A    between atoms: _434  and  _435
REMARK  184  A    between atoms: _435  and  _436
REMARK  185  A    between atoms: _441  and  _443
REMARK  186  A    between atoms: _443  and  _444
REMARK  187  A    between atoms: _443  and  _446
REMARK  188  A    between atoms: _446  and  _447
REMARK  189  A    between atoms: _449  and  _451
REMARK  190  A    between atoms: _451  and  _452
REMARK  191  A    between atoms: _451  and  _454
REMARK  192  A    between atoms: _454  and  _455
REMARK  193  A    between atoms: _460  and  _462
REMARK  194  A    between atoms: _462  and  _463
REMARK  195  A    between atoms: _462  and  _465
REMARK  196  A    between atoms: _465  and  _466
REMARK  197  A    between atoms: _468  and  _470
REMARK  198  A    between atoms: _470  and  _471
REMARK  199  A    between atoms: _473  and  _475
REMARK  200  A    between atoms: _475  and  _476
REMARK  201  A    between atoms: _475  and  _478
REMARK  202  A    between atoms: _478  and  _479
REMARK  203  A    between atoms: _482  and  _484
REMARK  204  A    between atoms: _484  and  _485
REMARK  205  A    between atoms: _484  and  _487
REMARK  206  A    between atoms: _487  and  _488
REMARK  207  A    between atoms: _494  and  _496
REMARK  208  A    between atoms: _496  and  _497
REMARK  209  A    between atoms: _496  and  _499
REMARK  210  A    between atoms: _499  and  _500
REMARK  211  A    between atoms: _502  and  _504
REMARK  212  A    between atoms: _504  and  _505
REMARK  213  A    between atoms: _504  and  _507
REMARK  214  A    between atoms: _507  and  _508
REMARK  215  A    between atoms: _511  and  _513
REMARK  216  A    between atoms: _513  and  _514
REMARK  217  A    between atoms: _516  and  _518
REMARK  218  A    between atoms: _518  and  _519
REMARK  219  A    between atoms: _518  and  _521
REMARK  220  A    between atoms: _521  and  _522
REMARK  221  A    between atoms: _525  and  _527
REMARK  222  A    between atoms: _527  and  _528
REMARK  223  A    between atoms: _527  and  _530
REMARK  224  A    between atoms: _530  and  _531
REMARK  225  A    between atoms: _533  and  _535
REMARK  226  A    between atoms: _535  and  _536
REMARK  227  A    between atoms: _538  and  _540
REMARK  228  A    between atoms: _540  and  _541
REMARK  229  A    between atoms: _540  and  _543
REMARK  230  A    between atoms: _543  and  _544
REMARK  231  A    between atoms: _549  and  _550
REMARK  232  A    between atoms: _552  and  _554
REMARK  233  A    between atoms: _554  and  _555
REMARK  234  A    between atoms: _554  and  _557
REMARK  235  A    between atoms: _557  and  _558
REMARK  236  A    between atoms: _561  and  _563
REMARK  237  A    between atoms: _563  and  _564
REMARK  238  A    between atoms: _563  and  _566
REMARK  239  A    between atoms: _566  and  _567
REMARK  240  A    between atoms: _567  and  _568
REMARK  241  A    between atoms: _574  and  _575
REMARK  242  A    between atoms: _580  and  _582
REMARK  243  A    between atoms: _582  and  _583
REMARK  244  A    between atoms: _582  and  _585
REMARK  245  A    between atoms: _585  and  _586
REMARK  246  A    between atoms: _586  and  _587
REMARK                            x       y       z     vdW  Elec       q    Type
REMARK                         _______ _______ _______ _____ _____    ______ ____
ROOT
ATOM      1  O   HOH     1      13.129   1.660  14.097  0.00  0.00    +0.000 OA
ENDROOT
TORSDOF 0
REMARK  Name = ../refined-set-2016/2wec/2wec_pocket.pdb
REMARK  246 active torsions:
REMARK  status: ('A' for Active; 'I' for Inactive)
REMARK    1  A    between atoms: _1  and  _3
REMARK    2  A    between atoms: _3  and  _4
REMARK    3  A    between atoms: _3  and  _6
REMARK    4  A    between atoms: _6  and  _7
REMARK    5  A    between atoms: _10  and  _12
REMARK    6  A    between atoms: _12  and  _13
REMARK    7  A    between atoms: _12  and  _15
REMARK    8  A    between atoms: _15  and  _16
REMARK    9  A    between atoms: _19  and  _21
REMARK   10  A    between atoms: _21  and  _22
REMARK   11  A    between atoms: _21  and  _24
REMARK   12  A    between atoms: _24  and  _25
REMARK   13  A    between atoms: _25  and  _26
REMARK   14  A    between atoms: _29  and  _31
REMARK   15  A    between atoms: _31  and  _32
REMARK   16  A    between atoms: _31  and  _34
REMARK   17  A    between atoms: _34  and  _35
REMARK   18  A    between atoms: _35  and  _36
REMARK   19  A    between atoms: _39  and  _41
REMARK   20  A    between atoms: _41  and  _42
REMARK   21  A    between atoms: _41  and  _44
REMARK   22  A    between atoms: _44  and  _45
REMARK   23  A    between atoms: _50  and  _51
REMARK   24  A    between atoms: _53  and  _55
REMARK   25  A    between atoms: _55  and  _56
REMARK   26  A    between atoms: _55  and  _58
REMARK   27  A    between atoms: _58  and  _59
REMARK   28  A    between atoms: _64  and  _66
REMARK   29  A    between atoms: _66  and  _67
REMARK   30  A    between atoms: _66  and  _69
REMARK   31  A    between atoms: _69  and  _70
REMARK   32  A    between atoms: _73  and  _75
REMARK   33  A    between atoms: _75  and  _76
REMARK   34  A    between atoms: _75  and  _78
REMARK   35  A    between atoms: _78  and  _79
REMARK   36  A    between atoms: _82  and  _84
REMARK   37  A    between atoms: _84  and  _85
REMARK   38  A    between atoms: _87  and  _89
REMARK   39  A    between atoms: _89  and  _90
REMARK   40  A    between atoms: _89  and  _92
REMARK   41  A    between atoms: _92  and  _93
REMARK   42  A    between atoms: _95  and  _97
REMARK   43  A    between atoms: _97  and  _98
REMARK   44  A    between atoms: _97  and  _100
REMARK   45  A    between atoms: _100  and  _101
REMARK   46  A    between atoms: _104  and  _106
REMARK   47  A    between atoms: _106  and  _107
REMARK   48  A    between atoms: _106  and  _109
REMARK   49  A    between atoms: _109  and  _110
REMARK   50  A    between atoms: _112  and  _114
REMARK   51  A    between atoms: _114  and  _115
REMARK   52  A    between atoms: _114  and  _117
REMARK   53  A    between atoms: _117  and  _118
REMARK   54  A    between atoms: _123  and  _124
REMARK   55  A    between atoms: _126  and  _128
REMARK   56  A    between atoms: _128  and  _129
REMARK   57  A    between atoms: _131  and  _133
REMARK   58  A    between atoms: _133  and  _134
REMARK   59  A    between atoms: _133  and  _136
REMARK   60  A    between atoms: _136  and  _137
REMARK   61  A    between atoms: _140  and  _142
REMARK   62  A    between atoms: _142  and  _143
REMARK   63  A    between atoms: _145  and  _147
REMARK   64  A    between atoms: _147  and  _148
REMARK   65  A    between atoms: _147  and  _150
REMARK   66  A    between atoms: _150  and  _151
REMARK   67  A    between atoms: _153  and  _155
REMARK   68  A    between atoms: _155  and  _156
REMARK   69  A    between atoms: _155  and  _158
REMARK   70  A    between atoms: _158  and  _159
REMARK   71  A    between atoms: _159  and  _160
REMARK   72  A    between atoms: _165  and  _167
REMARK   73  A    between atoms: _167  and  _168
REMARK   74  A    between atoms: _167  and  _170
REMARK   75  A    between atoms: _170  and  _171
REMARK   76  A    between atoms: _177  and  _179
REMARK   77  A    between atoms: _179  and  _180
REMARK   78  A    between atoms: _179  and  _182
REMARK   79  A    between atoms: _182  and  _183
REMARK   80  A    between atoms: _186  and  _188
REMARK   81  A    between atoms: _188  and  _189
REMARK   82  A    between atoms: _188  and  _191
REMARK   83  A    between atoms: _191  and  _192
REMARK   84  A    between atoms: _197  and  _199
REMARK   85  A    between atoms: _199  and  _200
REMARK   86  A    between atoms: _199  and  _202
REMARK   87  A    between atoms: _202  and  _203
REMARK   88  A    between atoms: _208  and  _210
REMARK   89  A    between atoms: _210  and  _211
REMARK   90  A    between atoms: _210  and  _213
REMARK   91  A    between atoms: _213  and  _214
REMARK   92  A    between atoms: _217  and  _219
REMARK   93  A    between atoms: _219  and  _220
REMARK   94  A    between atoms: _223  and  _225
REMARK   95  A    between atoms: _225  and  _226
REMARK   96  A    between atoms: _225  and  _228
REMARK   97  A    between atoms: _228  and  _229
REMARK   98  A    between atoms: _232  and  _234
REMARK   99  A    between atoms: _234  and  _235
REMARK  100  A    between atoms: _234  and  _237
REMARK  101  A    between atoms: _237  and  _238
REMARK  102  A    between atoms: _244  and  _246
REMARK  103  A    between atoms: _246  and  _247
REMARK  104  A    between atoms: _246  and  _249
REMARK  105  A    between atoms: _249  and  _250
REMARK  106  A    between atoms: _253  and  _255
REMARK  107  A    between atoms: _255  and  _256
REMARK  108  A    between atoms: _255  and  _258
REMARK  109  A    between atoms: _258  and  _259
REMARK  110  A    between atoms: _262  and  _264
REMARK  111  A    between atoms: _264  and  _265
REMARK  112  A    between atoms: _264  and  _267
REMARK  113  A    between atoms: _267  and  _268
REMARK  114  A    between atoms: _271  and  _273
REMARK  115  A    between atoms: _273  and  _274
REMARK  116  A    between atoms: _276  and  _278
REMARK  117  A    between atoms: _278  and  _279
REMARK  118  A    between atoms: _278  and  _281
REMARK  119  A    between atoms: _281  and  _282
REMARK  120  A    between atoms: _285  and  _287
REMARK  121  A    between atoms: _287  and  _288
REMARK  122  A    between atoms: _287  and  _290
REMARK  123  A    between atoms: _290  and  _291
REMARK  124  A    between atoms: _294  and  _296
REMARK  125  A    between atoms: _296  and  _297
REMARK  126  A    between atoms: _296  and  _299
REMARK  127  A    between atoms: _299  and  _300
REMARK  128  A    between atoms: _303  and  _305
REMARK  129  A    between atoms: _305  and  _306
REMARK  130  A    between atoms: _305  and  _308
REMARK  131  A    between atoms: _308  and  _309
REMARK  132  A    between atoms: _312  and  _314
REMARK  133  A    between atoms: _314  and  _315
REMARK  134  A    between atoms: _314  and  _317
REMARK  135  A    between atoms: _317  and  _318
REMARK  136  A    between atoms: _321  and  _323
REMARK  137  A    between atoms: _323  and  _324
REMARK  138  A    between atoms: _323  and  _326
REMARK  139  A    between atoms: _326  and  _327
REMARK  140  A    between atoms: _330  and  _332
REMARK  141  A    between atoms: _332  and  _333
REMARK  142  A    between atoms: _332  and  _335
REMARK  143  A    between atoms: _335  and  _336
REMARK  144  A    between atoms: _338  and  _340
REMARK  145  A    between atoms: _340  and  _341
REMARK  146  A    between atoms: _340  and  _343
REMARK  147  A    between atoms: _343  and  _344
REMARK  148  A    between atoms: _349  and  _351
REMARK  149  A    between atoms: _351  and  _352
REMARK  150  A    between atoms: _355  and  _357
REMARK  151  A    between atoms: _357  and  _358
REMARK  152  A    between atoms: _360  and  _362
REMARK  153  A    between atoms: _362  and  _363
REMARK  154  A    between atoms: _365  and  _367
REMARK  155  A    between atoms: _367  and  _368
REMARK  156  A    between atoms: _367  and  _370
REMARK  157  A    between atoms: _370  and  _371
REMARK  158  A    between atoms: _376  and  _377
REMARK  159  A    between atoms: _379  and  _381
REMARK  160  A    between atoms: _381  and  _382
REMARK  161  A    between atoms: _381  and  _384
REMARK  162  A    between atoms: _384  and  _385
REMARK  163  A    between atoms: _390  and  _391
REMARK  164  A    between atoms: _393  and  _395
REMARK  165  A    between atoms: _395  and  _396
REMARK  166  A    between atoms: _395  and  _398
REMARK  167  A    between atoms: _398  and  _399
REMARK  168  A    between atoms: _401  and  _403
REMARK  169  A    between atoms: _403  and  _404
REMARK  170  A    between atoms: _403  and  _406
REMARK  171  A    between atoms: _406  and  _407
REMARK  172  A    between atoms: _410  and  _412
REMARK  173  A    between atoms: _412  and  _413
REMARK  174  A    between atoms: _415  and  _417
REMARK  175  A    between atoms: _417  and  _418
REMARK  176  A    between atoms: _420  and  _422
REMARK  177  A    between atoms: _422  and  _423
REMARK  178  A    between atoms: _422  and  _425
REMARK  179  A    between atoms: _425  and  _426
REMARK  180  A    between atoms: _429  and  _431
REMARK  181  A    between atoms: _431  and  _432
REMARK  182  A    between atoms: _431  and  _434
REMARK  183  A    between atoms: _434  and  _435
REMARK  184  A    between atoms: _435  and  _436
REMARK  185  A    between atoms: _441  and  _443
REMARK  186  A    between atoms: _443  and  _444
REMARK  187  A    between atoms: _443  and  _446
REMARK  188  A    between atoms: _446  and  _447
REMARK  189  A    between atoms: _449  and  _451
REMARK  190  A    between atoms: _451  and  _452
REMARK  191  A    between atoms: _451  and  _454
REMARK  192  A    between atoms: _454  and  _455
REMARK  193  A    between atoms: _460  and  _462
REMARK  194  A    between atoms: _462  and  _463
REMARK  195  A    between atoms: _462  and  _465
REMARK  196  A    between atoms: _465  and  _466
REMARK  197  A    between atoms: _468  and  _470
REMARK  198  A    between atoms: _470  and  _471
REMARK  199  A    between atoms: _473  and  _475
REMARK  200  A    between atoms: _475  and  _476
REMARK  201  A    between atoms: _475  and  _478
REMARK  202  A    between atoms: _478  and  _479
REMARK  203  A    between atoms: _482  and  _484
REMARK  204  A    between atoms: _484  and  _485
REMARK  205  A    between atoms: _484  and  _487
REMARK  206  A    between atoms: _487  and  _488
REMARK  207  A    between atoms: _494  and  _496
REMARK  208  A    between atoms: _496  and  _497
REMARK  209  A    between atoms: _496  and  _499
REMARK  210  A    between atoms: _499  and  _500
REMARK  211  A    between atoms: _502  and  _504
REMARK  212  A    between atoms: _504  and  _505
REMARK  213  A    between atoms: _504  and  _507
REMARK  214  A    between atoms: _507  and  _508
REMARK  215  A    between atoms: _511  and  _513
REMARK  216  A    between atoms: _513  and  _514
REMARK  217  A    between atoms: _516  and  _518
REMARK  218  A    between atoms: _518  and  _519
REMARK  219  A    between atoms: _518  and  _521
REMARK  220  A    between atoms: _521  and  _522
REMARK  221  A    between atoms: _525  and  _527
REMARK  222  A    between atoms: _527  and  _528
REMARK  223  A    between atoms: _527  and  _530
REMARK  224  A    between atoms: _530  and  _531
REMARK  225  A    between atoms: _533  and  _535
REMARK  226  A    between atoms: _535  and  _536
REMARK  227  A    between atoms: _538  and  _540
REMARK  228  A    between atoms: _540  and  _541
REMARK  229  A    between atoms: _540  and  _543
REMARK  230  A    between atoms: _543  and  _544
REMARK  231  A    between atoms: _549  and  _550
REMARK  232  A    between atoms: _552  and  _554
REMARK  233  A    between atoms: _554  and  _555
REMARK  234  A    between atoms: _554  and  _557
REMARK  235  A    between atoms: _557  and  _558
REMARK  236  A    between atoms: _561  and  _563
REMARK  237  A    between atoms: _563  and  _564
REMARK  238  A    between atoms: _563  and  _566
REMARK  239  A    between atoms: _566  and  _567
REMARK  240  A    between atoms: _567  and  _568
REMARK  241  A    between atoms: _574  and  _575
REMARK  242  A    between atoms: _580  and  _582
REMARK  243  A    between atoms: _582  and  _583
REMARK  244  A    between atoms: _582  and  _585
REMARK  245  A    between atoms: _585  and  _586
REMARK  246  A    between atoms: _586  and  _587
REMARK                            x       y       z     vdW  Elec       q    Type
REMARK                         _______ _______ _______ _____ _____    ______ ____
ROOT
ATOM      1  O   HOH     1      10.130   4.840  25.790  0.00  0.00    +0.000 OA
ENDROOT
TORSDOF 0
REMARK  Name = ../refined-set-2016/2wec/2wec_pocket.pdb
REMARK  246 active torsions:
REMARK  status: ('A' for Active; 'I' for Inactive)
REMARK    1  A    between atoms: _1  and  _3
REMARK    2  A    between atoms: _3  and  _4
REMARK    3  A    between atoms: _3  and  _6
REMARK    4  A    between atoms: _6  and  _7
REMARK    5  A    between atoms: _10  and  _12
REMARK    6  A    between atoms: _12  and  _13
REMARK    7  A    between atoms: _12  and  _15
REMARK    8  A    between atoms: _15  and  _16
REMARK    9  A    between atoms: _19  and  _21
REMARK   10  A    between atoms: _21  and  _22
REMARK   11  A    between atoms: _21  and  _24
REMARK   12  A    between atoms: _24  and  _25
REMARK   13  A    between atoms: _25  and  _26
REMARK   14  A    between atoms: _29  and  _31
REMARK   15  A    between atoms: _31  and  _32
REMARK   16  A    between atoms: _31  and  _34
REMARK   17  A    between atoms: _34  and  _35
REMARK   18  A    between atoms: _35  and  _36
REMARK   19  A    between atoms: _39  and  _41
REMARK   20  A    between atoms: _41  and  _42
REMARK   21  A    between atoms: _41  and  _44
REMARK   22  A    between atoms: _44  and  _45
REMARK   23  A    between atoms: _50  and  _51
REMARK   24  A    between atoms: _53  and  _55
REMARK   25  A    between atoms: _55  and  _56
REMARK   26  A    between atoms: _55  and  _58
REMARK   27  A    between atoms: _58  and  _59
REMARK   28  A    between atoms: _64  and  _66
REMARK   29  A    between atoms: _66  and  _67
REMARK   30  A    between atoms: _66  and  _69
REMARK   31  A    between atoms: _69  and  _70
REMARK   32  A    between atoms: _73  and  _75
REMARK   33  A    between atoms: _75  and  _76
REMARK   34  A    between atoms: _75  and  _78
REMARK   35  A    between atoms: _78  and  _79
REMARK   36  A    between atoms: _82  and  _84
REMARK   37  A    between atoms: _84  and  _85
REMARK   38  A    between atoms: _87  and  _89
REMARK   39  A    between atoms: _89  and  _90
REMARK   40  A    between atoms: _89  and  _92
REMARK   41  A    between atoms: _92  and  _93
REMARK   42  A    between atoms: _95  and  _97
REMARK   43  A    between atoms: _97  and  _98
REMARK   44  A    between atoms: _97  and  _100
REMARK   45  A    between atoms: _100  and  _101
REMARK   46  A    between atoms: _104  and  _106
REMARK   47  A    between atoms: _106  and  _107
REMARK   48  A    between atoms: _106  and  _109
REMARK   49  A    between atoms: _109  and  _110
REMARK   50  A    between atoms: _112  and  _114
REMARK   51  A    between atoms: _114  and  _115
REMARK   52  A    between atoms: _114  and  _117
REMARK   53  A    between atoms: _117  and  _118
REMARK   54  A    between atoms: _123  and  _124
REMARK   55  A    between atoms: _126  and  _128
REMARK   56  A    between atoms: _128  and  _129
REMARK   57  A    between atoms: _131  and  _133
REMARK   58  A    between atoms: _133  and  _134
REMARK   59  A    between atoms: _133  and  _136
REMARK   60  A    between atoms: _136  and  _137
REMARK   61  A    between atoms: _140  and  _142
REMARK   62  A    between atoms: _142  and  _143
REMARK   63  A    between atoms: _145  and  _147
REMARK   64  A    between atoms: _147  and  _148
REMARK   65  A    between atoms: _147  and  _150
REMARK   66  A    between atoms: _150  and  _151
REMARK   67  A    between atoms: _153  and  _155
REMARK   68  A    between atoms: _155  and  _156
REMARK   69  A    between atoms: _155  and  _158
REMARK   70  A    between atoms: _158  and  _159
REMARK   71  A    between atoms: _159  and  _160
REMARK   72  A    between atoms: _165  and  _167
REMARK   73  A    between atoms: _167  and  _168
REMARK   74  A    between atoms: _167  and  _170
REMARK   75  A    between atoms: _170  and  _171
REMARK   76  A    between atoms: _177  and  _179
REMARK   77  A    between atoms: _179  and  _180
REMARK   78  A    between atoms: _179  and  _182
REMARK   79  A    between atoms: _182  and  _183
REMARK   80  A    between atoms: _186  and  _188
REMARK   81  A    between atoms: _188  and  _189
REMARK   82  A    between atoms: _188  and  _191
REMARK   83  A    between atoms: _191  and  _192
REMARK   84  A    between atoms: _197  and  _199
REMARK   85  A    between atoms: _199  and  _200
REMARK   86  A    between atoms: _199  and  _202
REMARK   87  A    between atoms: _202  and  _203
REMARK   88  A    between atoms: _208  and  _210
REMARK   89  A    between atoms: _210  and  _211
REMARK   90  A    between atoms: _210  and  _213
REMARK   91  A    between atoms: _213  and  _214
REMARK   92  A    between atoms: _217  and  _219
REMARK   93  A    between atoms: _219  and  _220
REMARK   94  A    between atoms: _223  and  _225
REMARK   95  A    between atoms: _225  and  _226
REMARK   96  A    between atoms: _225  and  _228
REMARK   97  A    between atoms: _228  and  _229
REMARK   98  A    between atoms: _232  and  _234
REMARK   99  A    between atoms: _234  and  _235
REMARK  100  A    between atoms: _234  and  _237
REMARK  101  A    between atoms: _237  and  _238
REMARK  102  A    between atoms: _244  and  _246
REMARK  103  A    between atoms: _246  and  _247
REMARK  104  A    between atoms: _246  and  _249
REMARK  105  A    between atoms: _249  and  _250
REMARK  106  A    between atoms: _253  and  _255
REMARK  107  A    between atoms: _255  and  _256
REMARK  108  A    between atoms: _255  and  _258
REMARK  109  A    between atoms: _258  and  _259
REMARK  110  A    between atoms: _262  and  _264
REMARK  111  A    between atoms: _264  and  _265
REMARK  112  A    between atoms: _264  and  _267
REMARK  113  A    between atoms: _267  and  _268
REMARK  114  A    between atoms: _271  and  _273
REMARK  115  A    between atoms: _273  and  _274
REMARK  116  A    between atoms: _276  and  _278
REMARK  117  A    between atoms: _278  and  _279
REMARK  118  A    between atoms: _278  and  _281
REMARK  119  A    between atoms: _281  and  _282
REMARK  120  A    between atoms: _285  and  _287
REMARK  121  A    between atoms: _287  and  _288
REMARK  122  A    between atoms: _287  and  _290
REMARK  123  A    between atoms: _290  and  _291
REMARK  124  A    between atoms: _294  and  _296
REMARK  125  A    between atoms: _296  and  _297
REMARK  126  A    between atoms: _296  and  _299
REMARK  127  A    between atoms: _299  and  _300
REMARK  128  A    between atoms: _303  and  _305
REMARK  129  A    between atoms: _305  and  _306
REMARK  130  A    between atoms: _305  and  _308
REMARK  131  A    between atoms: _308  and  _309
REMARK  132  A    between atoms: _312  and  _314
REMARK  133  A    between atoms: _314  and  _315
REMARK  134  A    between atoms: _314  and  _317
REMARK  135  A    between atoms: _317  and  _318
REMARK  136  A    between atoms: _321  and  _323
REMARK  137  A    between atoms: _323  and  _324
REMARK  138  A    between atoms: _323  and  _326
REMARK  139  A    between atoms: _326  and  _327
REMARK  140  A    between atoms: _330  and  _332
REMARK  141  A    between atoms: _332  and  _333
REMARK  142  A    between atoms: _332  and  _335
REMARK  143  A    between atoms: _335  and  _336
REMARK  144  A    between atoms: _338  and  _340
REMARK  145  A    between atoms: _340  and  _341
REMARK  146  A    between atoms: _340  and  _343
REMARK  147  A    between atoms: _343  and  _344
REMARK  148  A    between atoms: _349  and  _351
REMARK  149  A    between atoms: _351  and  _352
REMARK  150  A    between atoms: _355  and  _357
REMARK  151  A    between atoms: _357  and  _358
REMARK  152  A    between atoms: _360  and  _362
REMARK  153  A    between atoms: _362  and  _363
REMARK  154  A    between atoms: _365  and  _367
REMARK  155  A    between atoms: _367  and  _368
REMARK  156  A    between atoms: _367  and  _370
REMARK  157  A    between atoms: _370  and  _371
REMARK  158  A    between atoms: _376  and  _377
REMARK  159  A    between atoms: _379  and  _381
REMARK  160  A    between atoms: _381  and  _382
REMARK  161  A    between atoms: _381  and  _384
REMARK  162  A    between atoms: _384  and  _385
REMARK  163  A    between atoms: _390  and  _391
REMARK  164  A    between atoms: _393  and  _395
REMARK  165  A    between atoms: _395  and  _396
REMARK  166  A    between atoms: _395  and  _398
REMARK  167  A    between atoms: _398  and  _399
REMARK  168  A    between atoms: _401  and  _403
REMARK  169  A    between atoms: _403  and  _404
REMARK  170  A    between atoms: _403  and  _406
REMARK  171  A    between atoms: _406  and  _407
REMARK  172  A    between atoms: _410  and  _412
REMARK  173  A    between atoms: _412  and  _413
REMARK  174  A    between atoms: _415  and  _417
REMARK  175  A    between atoms: _417  and  _418
REMARK  176  A    between atoms: _420  and  _422
REMARK  177  A    between atoms: _422  and  _423
REMARK  178  A    between atoms: _422  and  _425
REMARK  179  A    between atoms: _425  and  _426
REMARK  180  A    between atoms: _429  and  _431
REMARK  181  A    between atoms: _431  and  _432
REMARK  182  A    between atoms: _431  and  _434
REMARK  183  A    between atoms: _434  and  _435
REMARK  184  A    between atoms: _435  and  _436
REMARK  185  A    between atoms: _441  and  _443
REMARK  186  A    between atoms: _443  and  _444
REMARK  187  A    between atoms: _443  and  _446
REMARK  188  A    between atoms: _446  and  _447
REMARK  189  A    between atoms: _449  and  _451
REMARK  190  A    between atoms: _451  and  _452
REMARK  191  A    between atoms: _451  and  _454
REMARK  192  A    between atoms: _454  and  _455
REMARK  193  A    between atoms: _460  and  _462
REMARK  194  A    between atoms: _462  and  _463
REMARK  195  A    between atoms: _462  and  _465
REMARK  196  A    between atoms: _465  and  _466
REMARK  197  A    between atoms: _468  and  _470
REMARK  198  A    between atoms: _470  and  _471
REMARK  199  A    between atoms: _473  and  _475
REMARK  200  A    between atoms: _475  and  _476
REMARK  201  A    between atoms: _475  and  _478
REMARK  202  A    between atoms: _478  and  _479
REMARK  203  A    between atoms: _482  and  _484
REMARK  204  A    between atoms: _484  and  _485
REMARK  205  A    between atoms: _484  and  _487
REMARK  206  A    between atoms: _487  and  _488
REMARK  207  A    between atoms: _494  and  _496
REMARK  208  A    between atoms: _496  and  _497
REMARK  209  A    between atoms: _496  and  _499
REMARK  210  A    between atoms: _499  and  _500
REMARK  211  A    between atoms: _502  and  _504
REMARK  212  A    between atoms: _504  and  _505
REMARK  213  A    between atoms: _504  and  _507
REMARK  214  A    between atoms: _507  and  _508
REMARK  215  A    between atoms: _511  and  _513
REMARK  216  A    between atoms: _513  and  _514
REMARK  217  A    between atoms: _516  and  _518
REMARK  218  A    between atoms: _518  and  _519
REMARK  219  A    between atoms: _518  and  _521
REMARK  220  A    between atoms: _521  and  _522
REMARK  221  A    between atoms: _525  and  _527
REMARK  222  A    between atoms: _527  and  _528
REMARK  223  A    between atoms: _527  and  _530
REMARK  224  A    between atoms: _530  and  _531
REMARK  225  A    between atoms: _533  and  _535
REMARK  226  A    between atoms: _535  and  _536
REMARK  227  A    between atoms: _538  and  _540
REMARK  228  A    between atoms: _540  and  _541
REMARK  229  A    between atoms: _540  and  _543
REMARK  230  A    between atoms: _543  and  _544
REMARK  231  A    between atoms: _549  and  _550
REMARK  232  A    between atoms: _552  and  _554
REMARK  233  A    between atoms: _554  and  _555
REMARK  234  A    between atoms: _554  and  _557
REMARK  235  A    between atoms: _557  and  _558
REMARK  236  A    between atoms: _561  and  _563
REMARK  237  A    between atoms: _563  and  _564
REMARK  238  A    between atoms: _563  and  _566
REMARK  239  A    between atoms: _566  and  _567
REMARK  240  A    between atoms: _567  and  _568
REMARK  241  A    between atoms: _574  and  _575
REMARK  242  A    between atoms: _580  and  _582
REMARK  243  A    between atoms: _582  and  _583
REMARK  244  A    between atoms: _582  and  _585
REMARK  245  A    between atoms: _585  and  _586
REMARK  246  A    between atoms: _586  and  _587
REMARK                            x       y       z     vdW  Elec       q    Type
REMARK                         _______ _______ _______ _____ _____    ______ ____
ROOT
ATOM      1  O   HOH     1      19.262   1.418  22.622  0.00  0.00    +0.000 OA
ENDROOT
TORSDOF 0
REMARK  Name = ../refined-set-2016/2wec/2wec_pocket.pdb
REMARK  246 active torsions:
REMARK  status: ('A' for Active; 'I' for Inactive)
REMARK    1  A    between atoms: _1  and  _3
REMARK    2  A    between atoms: _3  and  _4
REMARK    3  A    between atoms: _3  and  _6
REMARK    4  A    between atoms: _6  and  _7
REMARK    5  A    between atoms: _10  and  _12
REMARK    6  A    between atoms: _12  and  _13
REMARK    7  A    between atoms: _12  and  _15
REMARK    8  A    between atoms: _15  and  _16
REMARK    9  A    between atoms: _19  and  _21
REMARK   10  A    between atoms: _21  and  _22
REMARK   11  A    between atoms: _21  and  _24
REMARK   12  A    between atoms: _24  and  _25
REMARK   13  A    between atoms: _25  and  _26
REMARK   14  A    between atoms: _29  and  _31
REMARK   15  A    between atoms: _31  and  _32
REMARK   16  A    between atoms: _31  and  _34
REMARK   17  A    between atoms: _34  and  _35
REMARK   18  A    between atoms: _35  and  _36
REMARK   19  A    between atoms: _39  and  _41
REMARK   20  A    between atoms: _41  and  _42
REMARK   21  A    between atoms: _41  and  _44
REMARK   22  A    between atoms: _44  and  _45
REMARK   23  A    between atoms: _50  and  _51
REMARK   24  A    between atoms: _53  and  _55
REMARK   25  A    between atoms: _55  and  _56
REMARK   26  A    between atoms: _55  and  _58
REMARK   27  A    between atoms: _58  and  _59
REMARK   28  A    between atoms: _64  and  _66
REMARK   29  A    between atoms: _66  and  _67
REMARK   30  A    between atoms: _66  and  _69
REMARK   31  A    between atoms: _69  and  _70
REMARK   32  A    between atoms: _73  and  _75
REMARK   33  A    between atoms: _75  and  _76
REMARK   34  A    between atoms: _75  and  _78
REMARK   35  A    between atoms: _78  and  _79
REMARK   36  A    between atoms: _82  and  _84
REMARK   37  A    between atoms: _84  and  _85
REMARK   38  A    between atoms: _87  and  _89
REMARK   39  A    between atoms: _89  and  _90
REMARK   40  A    between atoms: _89  and  _92
REMARK   41  A    between atoms: _92  and  _93
REMARK   42  A    between atoms: _95  and  _97
REMARK   43  A    between atoms: _97  and  _98
REMARK   44  A    between atoms: _97  and  _100
REMARK   45  A    between atoms: _100  and  _101
REMARK   46  A    between atoms: _104  and  _106
REMARK   47  A    between atoms: _106  and  _107
REMARK   48  A    between atoms: _106  and  _109
REMARK   49  A    between atoms: _109  and  _110
REMARK   50  A    between atoms: _112  and  _114
REMARK   51  A    between atoms: _114  and  _115
REMARK   52  A    between atoms: _114  and  _117
REMARK   53  A    between atoms: _117  and  _118
REMARK   54  A    between atoms: _123  and  _124
REMARK   55  A    between atoms: _126  and  _128
REMARK   56  A    between atoms: _128  and  _129
REMARK   57  A    between atoms: _131  and  _133
REMARK   58  A    between atoms: _133  and  _134
REMARK   59  A    between atoms: _133  and  _136
REMARK   60  A    between atoms: _136  and  _137
REMARK   61  A    between atoms: _140  and  _142
REMARK   62  A    between atoms: _142  and  _143
REMARK   63  A    between atoms: _145  and  _147
REMARK   64  A    between atoms: _147  and  _148
REMARK   65  A    between atoms: _147  and  _150
REMARK   66  A    between atoms: _150  and  _151
REMARK   67  A    between atoms: _153  and  _155
REMARK   68  A    between atoms: _155  and  _156
REMARK   69  A    between atoms: _155  and  _158
REMARK   70  A    between atoms: _158  and  _159
REMARK   71  A    between atoms: _159  and  _160
REMARK   72  A    between atoms: _165  and  _167
REMARK   73  A    between atoms: _167  and  _168
REMARK   74  A    between atoms: _167  and  _170
REMARK   75  A    between atoms: _170  and  _171
REMARK   76  A    between atoms: _177  and  _179
REMARK   77  A    between atoms: _179  and  _180
REMARK   78  A    between atoms: _179  and  _182
REMARK   79  A    between atoms: _182  and  _183
REMARK   80  A    between atoms: _186  and  _188
REMARK   81  A    between atoms: _188  and  _189
REMARK   82  A    between atoms: _188  and  _191
REMARK   83  A    between atoms: _191  and  _192
REMARK   84  A    between atoms: _197  and  _199
REMARK   85  A    between atoms: _199  and  _200
REMARK   86  A    between atoms: _199  and  _202
REMARK   87  A    between atoms: _202  and  _203
REMARK   88  A    between atoms: _208  and  _210
REMARK   89  A    between atoms: _210  and  _211
REMARK   90  A    between atoms: _210  and  _213
REMARK   91  A    between atoms: _213  and  _214
REMARK   92  A    between atoms: _217  and  _219
REMARK   93  A    between atoms: _219  and  _220
REMARK   94  A    between atoms: _223  and  _225
REMARK   95  A    between atoms: _225  and  _226
REMARK   96  A    between atoms: _225  and  _228
REMARK   97  A    between atoms: _228  and  _229
REMARK   98  A    between atoms: _232  and  _234
REMARK   99  A    between atoms: _234  and  _235
REMARK  100  A    between atoms: _234  and  _237
REMARK  101  A    between atoms: _237  and  _238
REMARK  102  A    between atoms: _244  and  _246
REMARK  103  A    between atoms: _246  and  _247
REMARK  104  A    between atoms: _246  and  _249
REMARK  105  A    between atoms: _249  and  _250
REMARK  106  A    between atoms: _253  and  _255
REMARK  107  A    between atoms: _255  and  _256
REMARK  108  A    between atoms: _255  and  _258
REMARK  109  A    between atoms: _258  and  _259
REMARK  110  A    between atoms: _262  and  _264
REMARK  111  A    between atoms: _264  and  _265
REMARK  112  A    between atoms: _264  and  _267
REMARK  113  A    between atoms: _267  and  _268
REMARK  114  A    between atoms: _271  and  _273
REMARK  115  A    between atoms: _273  and  _274
REMARK  116  A    between atoms: _276  and  _278
REMARK  117  A    between atoms: _278  and  _279
REMARK  118  A    between atoms: _278  and  _281
REMARK  119  A    between atoms: _281  and  _282
REMARK  120  A    between atoms: _285  and  _287
REMARK  121  A    between atoms: _287  and  _288
REMARK  122  A    between atoms: _287  and  _290
REMARK  123  A    between atoms: _290  and  _291
REMARK  124  A    between atoms: _294  and  _296
REMARK  125  A    between atoms: _296  and  _297
REMARK  126  A    between atoms: _296  and  _299
REMARK  127  A    between atoms: _299  and  _300
REMARK  128  A    between atoms: _303  and  _305
REMARK  129  A    between atoms: _305  and  _306
REMARK  130  A    between atoms: _305  and  _308
REMARK  131  A    between atoms: _308  and  _309
REMARK  132  A    between atoms: _312  and  _314
REMARK  133  A    between atoms: _314  and  _315
REMARK  134  A    between atoms: _314  and  _317
REMARK  135  A    between atoms: _317  and  _318
REMARK  136  A    between atoms: _321  and  _323
REMARK  137  A    between atoms: _323  and  _324
REMARK  138  A    between atoms: _323  and  _326
REMARK  139  A    between atoms: _326  and  _327
REMARK  140  A    between atoms: _330  and  _332
REMARK  141  A    between atoms: _332  and  _333
REMARK  142  A    between atoms: _332  and  _335
REMARK  143  A    between atoms: _335  and  _336
REMARK  144  A    between atoms: _338  and  _340
REMARK  145  A    between atoms: _340  and  _341
REMARK  146  A    between atoms: _340  and  _343
REMARK  147  A    between atoms: _343  and  _344
REMARK  148  A    between atoms: _349  and  _351
REMARK  149  A    between atoms: _351  and  _352
REMARK  150  A    between atoms: _355  and  _357
REMARK  151  A    between atoms: _357  and  _358
REMARK  152  A    between atoms: _360  and  _362
REMARK  153  A    between atoms: _362  and  _363
REMARK  154  A    between atoms: _365  and  _367
REMARK  155  A    between atoms: _367  and  _368
REMARK  156  A    between atoms: _367  and  _370
REMARK  157  A    between atoms: _370  and  _371
REMARK  158  A    between atoms: _376  and  _377
REMARK  159  A    between atoms: _379  and  _381
REMARK  160  A    between atoms: _381  and  _382
REMARK  161  A    between atoms: _381  and  _384
REMARK  162  A    between atoms: _384  and  _385
REMARK  163  A    between atoms: _390  and  _391
REMARK  164  A    between atoms: _393  and  _395
REMARK  165  A    between atoms: _395  and  _396
REMARK  166  A    between atoms: _395  and  _398
REMARK  167  A    between atoms: _398  and  _399
REMARK  168  A    between atoms: _401  and  _403
REMARK  169  A    between atoms: _403  and  _404
REMARK  170  A    between atoms: _403  and  _406
REMARK  171  A    between atoms: _406  and  _407
REMARK  172  A    between atoms: _410  and  _412
REMARK  173  A    between atoms: _412  and  _413
REMARK  174  A    between atoms: _415  and  _417
REMARK  175  A    between atoms: _417  and  _418
REMARK  176  A    between atoms: _420  and  _422
REMARK  177  A    between atoms: _422  and  _423
REMARK  178  A    between atoms: _422  and  _425
REMARK  179  A    between atoms: _425  and  _426
REMARK  180  A    between atoms: _429  and  _431
REMARK  181  A    between atoms: _431  and  _432
REMARK  182  A    between atoms: _431  and  _434
REMARK  183  A    between atoms: _434  and  _435
REMARK  184  A    between atoms: _435  and  _436
REMARK  185  A    between atoms: _441  and  _443
REMARK  186  A    between atoms: _443  and  _444
REMARK  187  A    between atoms: _443  and  _446
REMARK  188  A    between atoms: _446  and  _447
REMARK  189  A    between atoms: _449  and  _451
REMARK  190  A    between atoms: _451  and  _452
REMARK  191  A    between atoms: _451  and  _454
REMARK  192  A    between atoms: _454  and  _455
REMARK  193  A    between atoms: _460  and  _462
REMARK  194  A    between atoms: _462  and  _463
REMARK  195  A    between atoms: _462  and  _465
REMARK  196  A    between atoms: _465  and  _466
REMARK  197  A    between atoms: _468  and  _470
REMARK  198  A    between atoms: _470  and  _471
REMARK  199  A    between atoms: _473  and  _475
REMARK  200  A    between atoms: _475  and  _476
REMARK  201  A    between atoms: _475  and  _478
REMARK  202  A    between atoms: _478  and  _479
REMARK  203  A    between atoms: _482  and  _484
REMARK  204  A    between atoms: _484  and  _485
REMARK  205  A    between atoms: _484  and  _487
REMARK  206  A    between atoms: _487  and  _488
REMARK  207  A    between atoms: _494  and  _496
REMARK  208  A    between atoms: _496  and  _497
REMARK  209  A    between atoms: _496  and  _499
REMARK  210  A    between atoms: _499  and  _500
REMARK  211  A    between atoms: _502  and  _504
REMARK  212  A    between atoms: _504  and  _505
REMARK  213  A    between atoms: _504  and  _507
REMARK  214  A    between atoms: _507  and  _508
REMARK  215  A    between atoms: _511  and  _513
REMARK  216  A    between atoms: _513  and  _514
REMARK  217  A    between atoms: _516  and  _518
REMARK  218  A    between atoms: _518  and  _519
REMARK  219  A    between atoms: _518  and  _521
REMARK  220  A    between atoms: _521  and  _522
REMARK  221  A    between atoms: _525  and  _527
REMARK  222  A    between atoms: _527  and  _528
REMARK  223  A    between atoms: _527  and  _530
REMARK  224  A    between atoms: _530  and  _531
REMARK  225  A    between atoms: _533  and  _535
REMARK  226  A    between atoms: _535  and  _536
REMARK  227  A    between atoms: _538  and  _540
REMARK  228  A    between atoms: _540  and  _541
REMARK  229  A    between atoms: _540  and  _543
REMARK  230  A    between atoms: _543  and  _544
REMARK  231  A    between atoms: _549  and  _550
REMARK  232  A    between atoms: _552  and  _554
REMARK  233  A    between atoms: _554  and  _555
REMARK  234  A    between atoms: _554  and  _557
REMARK  235  A    between atoms: _557  and  _558
REMARK  236  A    between atoms: _561  and  _563
REMARK  237  A    between atoms: _563  and  _564
REMARK  238  A    between atoms: _563  and  _566
REMARK  239  A    between atoms: _566  and  _567
REMARK  240  A    between atoms: _567  and  _568
REMARK  241  A    between atoms: _574  and  _575
REMARK  242  A    between atoms: _580  and  _582
REMARK  243  A    between atoms: _582  and  _583
REMARK  244  A    between atoms: _582  and  _585
REMARK  245  A    between atoms: _585  and  _586
REMARK  246  A    between atoms: _586  and  _587
REMARK                            x       y       z     vdW  Elec       q    Type
REMARK                         _______ _______ _______ _____ _____    ______ ____
ROOT
ATOM      1  O   HOH     1      22.559  -1.569  16.290  0.00  0.00    +0.000 OA
ENDROOT
TORSDOF 0
REMARK  Name = ../refined-set-2016/2wec/2wec_pocket.pdb
REMARK  246 active torsions:
REMARK  status: ('A' for Active; 'I' for Inactive)
REMARK    1  A    between atoms: _1  and  _3
REMARK    2  A    between atoms: _3  and  _4
REMARK    3  A    between atoms: _3  and  _6
REMARK    4  A    between atoms: _6  and  _7
REMARK    5  A    between atoms: _10  and  _12
REMARK    6  A    between atoms: _12  and  _13
REMARK    7  A    between atoms: _12  and  _15
REMARK    8  A    between atoms: _15  and  _16
REMARK    9  A    between atoms: _19  and  _21
REMARK   10  A    between atoms: _21  and  _22
REMARK   11  A    between atoms: _21  and  _24
REMARK   12  A    between atoms: _24  and  _25
REMARK   13  A    between atoms: _25  and  _26
REMARK   14  A    between atoms: _29  and  _31
REMARK   15  A    between atoms: _31  and  _32
REMARK   16  A    between atoms: _31  and  _34
REMARK   17  A    between atoms: _34  and  _35
REMARK   18  A    between atoms: _35  and  _36
REMARK   19  A    between atoms: _39  and  _41
REMARK   20  A    between atoms: _41  and  _42
REMARK   21  A    between atoms: _41  and  _44
REMARK   22  A    between atoms: _44  and  _45
REMARK   23  A    between atoms: _50  and  _51
REMARK   24  A    between atoms: _53  and  _55
REMARK   25  A    between atoms: _55  and  _56
REMARK   26  A    between atoms: _55  and  _58
REMARK   27  A    between atoms: _58  and  _59
REMARK   28  A    between atoms: _64  and  _66
REMARK   29  A    between atoms: _66  and  _67
REMARK   30  A    between atoms: _66  and  _69
REMARK   31  A    between atoms: _69  and  _70
REMARK   32  A    between atoms: _73  and  _75
REMARK   33  A    between atoms: _75  and  _76
REMARK   34  A    between atoms: _75  and  _78
REMARK   35  A    between atoms: _78  and  _79
REMARK   36  A    between atoms: _82  and  _84
REMARK   37  A    between atoms: _84  and  _85
REMARK   38  A    between atoms: _87  and  _89
REMARK   39  A    between atoms: _89  and  _90
REMARK   40  A    between atoms: _89  and  _92
REMARK   41  A    between atoms: _92  and  _93
REMARK   42  A    between atoms: _95  and  _97
REMARK   43  A    between atoms: _97  and  _98
REMARK   44  A    between atoms: _97  and  _100
REMARK   45  A    between atoms: _100  and  _101
REMARK   46  A    between atoms: _104  and  _106
REMARK   47  A    between atoms: _106  and  _107
REMARK   48  A    between atoms: _106  and  _109
REMARK   49  A    between atoms: _109  and  _110
REMARK   50  A    between atoms: _112  and  _114
REMARK   51  A    between atoms: _114  and  _115
REMARK   52  A    between atoms: _114  and  _117
REMARK   53  A    between atoms: _117  and  _118
REMARK   54  A    between atoms: _123  and  _124
REMARK   55  A    between atoms: _126  and  _128
REMARK   56  A    between atoms: _128  and  _129
REMARK   57  A    between atoms: _131  and  _133
REMARK   58  A    between atoms: _133  and  _134
REMARK   59  A    between atoms: _133  and  _136
REMARK   60  A    between atoms: _136  and  _137
REMARK   61  A    between atoms: _140  and  _142
REMARK   62  A    between atoms: _142  and  _143
REMARK   63  A    between atoms: _145  and  _147
REMARK   64  A    between atoms: _147  and  _148
REMARK   65  A    between atoms: _147  and  _150
REMARK   66  A    between atoms: _150  and  _151
REMARK   67  A    between atoms: _153  and  _155
REMARK   68  A    between atoms: _155  and  _156
REMARK   69  A    between atoms: _155  and  _158
REMARK   70  A    between atoms: _158  and  _159
REMARK   71  A    between atoms: _159  and  _160
REMARK   72  A    between atoms: _165  and  _167
REMARK   73  A    between atoms: _167  and  _168
REMARK   74  A    between atoms: _167  and  _170
REMARK   75  A    between atoms: _170  and  _171
REMARK   76  A    between atoms: _177  and  _179
REMARK   77  A    between atoms: _179  and  _180
REMARK   78  A    between atoms: _179  and  _182
REMARK   79  A    between atoms: _182  and  _183
REMARK   80  A    between atoms: _186  and  _188
REMARK   81  A    between atoms: _188  and  _189
REMARK   82  A    between atoms: _188  and  _191
REMARK   83  A    between atoms: _191  and  _192
REMARK   84  A    between atoms: _197  and  _199
REMARK   85  A    between atoms: _199  and  _200
REMARK   86  A    between atoms: _199  and  _202
REMARK   87  A    between atoms: _202  and  _203
REMARK   88  A    between atoms: _208  and  _210
REMARK   89  A    between atoms: _210  and  _211
REMARK   90  A    between atoms: _210  and  _213
REMARK   91  A    between atoms: _213  and  _214
REMARK   92  A    between atoms: _217  and  _219
REMARK   93  A    between atoms: _219  and  _220
REMARK   94  A    between atoms: _223  and  _225
REMARK   95  A    between atoms: _225  and  _226
REMARK   96  A    between atoms: _225  and  _228
REMARK   97  A    between atoms: _228  and  _229
REMARK   98  A    between atoms: _232  and  _234
REMARK   99  A    between atoms: _234  and  _235
REMARK  100  A    between atoms: _234  and  _237
REMARK  101  A    between atoms: _237  and  _238
REMARK  102  A    between atoms: _244  and  _246
REMARK  103  A    between atoms: _246  and  _247
REMARK  104  A    between atoms: _246  and  _249
REMARK  105  A    between atoms: _249  and  _250
REMARK  106  A    between atoms: _253  and  _255
REMARK  107  A    between atoms: _255  and  _256
REMARK  108  A    between atoms: _255  and  _258
REMARK  109  A    between atoms: _258  and  _259
REMARK  110  A    between atoms: _262  and  _264
REMARK  111  A    between atoms: _264  and  _265
REMARK  112  A    between atoms: _264  and  _267
REMARK  113  A    between atoms: _267  and  _268
REMARK  114  A    between atoms: _271  and  _273
REMARK  115  A    between atoms: _273  and  _274
REMARK  116  A    between atoms: _276  and  _278
REMARK  117  A    between atoms: _278  and  _279
REMARK  118  A    between atoms: _278  and  _281
REMARK  119  A    between atoms: _281  and  _282
REMARK  120  A    between atoms: _285  and  _287
REMARK  121  A    between atoms: _287  and  _288
REMARK  122  A    between atoms: _287  and  _290
REMARK  123  A    between atoms: _290  and  _291
REMARK  124  A    between atoms: _294  and  _296
REMARK  125  A    between atoms: _296  and  _297
REMARK  126  A    between atoms: _296  and  _299
REMARK  127  A    between atoms: _299  and  _300
REMARK  128  A    between atoms: _303  and  _305
REMARK  129  A    between atoms: _305  and  _306
REMARK  130  A    between atoms: _305  and  _308
REMARK  131  A    between atoms: _308  and  _309
REMARK  132  A    between atoms: _312  and  _314
REMARK  133  A    between atoms: _314  and  _315
REMARK  134  A    between atoms: _314  and  _317
REMARK  135  A    between atoms: _317  and  _318
REMARK  136  A    between atoms: _321  and  _323
REMARK  137  A    between atoms: _323  and  _324
REMARK  138  A    between atoms: _323  and  _326
REMARK  139  A    between atoms: _326  and  _327
REMARK  140  A    between atoms: _330  and  _332
REMARK  141  A    between atoms: _332  and  _333
REMARK  142  A    between atoms: _332  and  _335
REMARK  143  A    between atoms: _335  and  _336
REMARK  144  A    between atoms: _338  and  _340
REMARK  145  A    between atoms: _340  and  _341
REMARK  146  A    between atoms: _340  and  _343
REMARK  147  A    between atoms: _343  and  _344
REMARK  148  A    between atoms: _349  and  _351
REMARK  149  A    between atoms: _351  and  _352
REMARK  150  A    between atoms: _355  and  _357
REMARK  151  A    between atoms: _357  and  _358
REMARK  152  A    between atoms: _360  and  _362
REMARK  153  A    between atoms: _362  and  _363
REMARK  154  A    between atoms: _365  and  _367
REMARK  155  A    between atoms: _367  and  _368
REMARK  156  A    between atoms: _367  and  _370
REMARK  157  A    between atoms: _370  and  _371
REMARK  158  A    between atoms: _376  and  _377
REMARK  159  A    between atoms: _379  and  _381
REMARK  160  A    between atoms: _381  and  _382
REMARK  161  A    between atoms: _381  and  _384
REMARK  162  A    between atoms: _384  and  _385
REMARK  163  A    between atoms: _390  and  _391
REMARK  164  A    between atoms: _393  and  _395
REMARK  165  A    between atoms: _395  and  _396
REMARK  166  A    between atoms: _395  and  _398
REMARK  167  A    between atoms: _398  and  _399
REMARK  168  A    between atoms: _401  and  _403
REMARK  169  A    between atoms: _403  and  _404
REMARK  170  A    between atoms: _403  and  _406
REMARK  171  A    between atoms: _406  and  _407
REMARK  172  A    between atoms: _410  and  _412
REMARK  173  A    between atoms: _412  and  _413
REMARK  174  A    between atoms: _415  and  _417
REMARK  175  A    between atoms: _417  and  _418
REMARK  176  A    between atoms: _420  and  _422
REMARK  177  A    between atoms: _422  and  _423
REMARK  178  A    between atoms: _422  and  _425
REMARK  179  A    between atoms: _425  and  _426
REMARK  180  A    between atoms: _429  and  _431
REMARK  181  A    between atoms: _431  and  _432
REMARK  182  A    between atoms: _431  and  _434
REMARK  183  A    between atoms: _434  and  _435
REMARK  184  A    between atoms: _435  and  _436
REMARK  185  A    between atoms: _441  and  _443
REMARK  186  A    between atoms: _443  and  _444
REMARK  187  A    between atoms: _443  and  _446
REMARK  188  A    between atoms: _446  and  _447
REMARK  189  A    between atoms: _449  and  _451
REMARK  190  A    between atoms: _451  and  _452
REMARK  191  A    between atoms: _451  and  _454
REMARK  192  A    between atoms: _454  and  _455
REMARK  193  A    between atoms: _460  and  _462
REMARK  194  A    between atoms: _462  and  _463
REMARK  195  A    between atoms: _462  and  _465
REMARK  196  A    between atoms: _465  and  _466
REMARK  197  A    between atoms: _468  and  _470
REMARK  198  A    between atoms: _470  and  _471
REMARK  199  A    between atoms: _473  and  _475
REMARK  200  A    between atoms: _475  and  _476
REMARK  201  A    between atoms: _475  and  _478
REMARK  202  A    between atoms: _478  and  _479
REMARK  203  A    between atoms: _482  and  _484
REMARK  204  A    between atoms: _484  and  _485
REMARK  205  A    between atoms: _484  and  _487
REMARK  206  A    between atoms: _487  and  _488
REMARK  207  A    between atoms: _494  and  _496
REMARK  208  A    between atoms: _496  and  _497
REMARK  209  A    between atoms: _496  and  _499
REMARK  210  A    between atoms: _499  and  _500
REMARK  211  A    between atoms: _502  and  _504
REMARK  212  A    between atoms: _504  and  _505
REMARK  213  A    between atoms: _504  and  _507
REMARK  214  A    between atoms: _507  and  _508
REMARK  215  A    between atoms: _511  and  _513
REMARK  216  A    between atoms: _513  and  _514
REMARK  217  A    between atoms: _516  and  _518
REMARK  218  A    between atoms: _518  and  _519
REMARK  219  A    between atoms: _518  and  _521
REMARK  220  A    between atoms: _521  and  _522
REMARK  221  A    between atoms: _525  and  _527
REMARK  222  A    between atoms: _527  and  _528
REMARK  223  A    between atoms: _527  and  _530
REMARK  224  A    between atoms: _530  and  _531
REMARK  225  A    between atoms: _533  and  _535
REMARK  226  A    between atoms: _535  and  _536
REMARK  227  A    between atoms: _538  and  _540
REMARK  228  A    between atoms: _540  and  _541
REMARK  229  A    between atoms: _540  and  _543
REMARK  230  A    between atoms: _543  and  _544
REMARK  231  A    between atoms: _549  and  _550
REMARK  232  A    between atoms: _552  and  _554
REMARK  233  A    between atoms: _554  and  _555
REMARK  234  A    between atoms: _554  and  _557
REMARK  235  A    between atoms: _557  and  _558
REMARK  236  A    between atoms: _561  and  _563
REMARK  237  A    between atoms: _563  and  _564
REMARK  238  A    between atoms: _563  and  _566
REMARK  239  A    between atoms: _566  and  _567
REMARK  240  A    between atoms: _567  and  _568
REMARK  241  A    between atoms: _574  and  _575
REMARK  242  A    between atoms: _580  and  _582
REMARK  243  A    between atoms: _582  and  _583
REMARK  244  A    between atoms: _582  and  _585
REMARK  245  A    between atoms: _585  and  _586
REMARK  246  A    between atoms: _586  and  _587
REMARK                            x       y       z     vdW  Elec       q    Type
REMARK                         _______ _______ _______ _____ _____    ______ ____
ROOT
ATOM      1  O   HOH     1      21.212   6.944  29.749  0.00  0.00    +0.000 OA
ENDROOT
TORSDOF 0
REMARK  Name = ../refined-set-2016/2wec/2wec_pocket.pdb
REMARK  246 active torsions:
REMARK  status: ('A' for Active; 'I' for Inactive)
REMARK    1  A    between atoms: _1  and  _3
REMARK    2  A    between atoms: _3  and  _4
REMARK    3  A    between atoms: _3  and  _6
REMARK    4  A    between atoms: _6  and  _7
REMARK    5  A    between atoms: _10  and  _12
REMARK    6  A    between atoms: _12  and  _13
REMARK    7  A    between atoms: _12  and  _15
REMARK    8  A    between atoms: _15  and  _16
REMARK    9  A    between atoms: _19  and  _21
REMARK   10  A    between atoms: _21  and  _22
REMARK   11  A    between atoms: _21  and  _24
REMARK   12  A    between atoms: _24  and  _25
REMARK   13  A    between atoms: _25  and  _26
REMARK   14  A    between atoms: _29  and  _31
REMARK   15  A    between atoms: _31  and  _32
REMARK   16  A    between atoms: _31  and  _34
REMARK   17  A    between atoms: _34  and  _35
REMARK   18  A    between atoms: _35  and  _36
REMARK   19  A    between atoms: _39  and  _41
REMARK   20  A    between atoms: _41  and  _42
REMARK   21  A    between atoms: _41  and  _44
REMARK   22  A    between atoms: _44  and  _45
REMARK   23  A    between atoms: _50  and  _51
REMARK   24  A    between atoms: _53  and  _55
REMARK   25  A    between atoms: _55  and  _56
REMARK   26  A    between atoms: _55  and  _58
REMARK   27  A    between atoms: _58  and  _59
REMARK   28  A    between atoms: _64  and  _66
REMARK   29  A    between atoms: _66  and  _67
REMARK   30  A    between atoms: _66  and  _69
REMARK   31  A    between atoms: _69  and  _70
REMARK   32  A    between atoms: _73  and  _75
REMARK   33  A    between atoms: _75  and  _76
REMARK   34  A    between atoms: _75  and  _78
REMARK   35  A    between atoms: _78  and  _79
REMARK   36  A    between atoms: _82  and  _84
REMARK   37  A    between atoms: _84  and  _85
REMARK   38  A    between atoms: _87  and  _89
REMARK   39  A    between atoms: _89  and  _90
REMARK   40  A    between atoms: _89  and  _92
REMARK   41  A    between atoms: _92  and  _93
REMARK   42  A    between atoms: _95  and  _97
REMARK   43  A    between atoms: _97  and  _98
REMARK   44  A    between atoms: _97  and  _100
REMARK   45  A    between atoms: _100  and  _101
REMARK   46  A    between atoms: _104  and  _106
REMARK   47  A    between atoms: _106  and  _107
REMARK   48  A    between atoms: _106  and  _109
REMARK   49  A    between atoms: _109  and  _110
REMARK   50  A    between atoms: _112  and  _114
REMARK   51  A    between atoms: _114  and  _115
REMARK   52  A    between atoms: _114  and  _117
REMARK   53  A    between atoms: _117  and  _118
REMARK   54  A    between atoms: _123  and  _124
REMARK   55  A    between atoms: _126  and  _128
REMARK   56  A    between atoms: _128  and  _129
REMARK   57  A    between atoms: _131  and  _133
REMARK   58  A    between atoms: _133  and  _134
REMARK   59  A    between atoms: _133  and  _136
REMARK   60  A    between atoms: _136  and  _137
REMARK   61  A    between atoms: _140  and  _142
REMARK   62  A    between atoms: _142  and  _143
REMARK   63  A    between atoms: _145  and  _147
REMARK   64  A    between atoms: _147  and  _148
REMARK   65  A    between atoms: _147  and  _150
REMARK   66  A    between atoms: _150  and  _151
REMARK   67  A    between atoms: _153  and  _155
REMARK   68  A    between atoms: _155  and  _156
REMARK   69  A    between atoms: _155  and  _158
REMARK   70  A    between atoms: _158  and  _159
REMARK   71  A    between atoms: _159  and  _160
REMARK   72  A    between atoms: _165  and  _167
REMARK   73  A    between atoms: _167  and  _168
REMARK   74  A    between atoms: _167  and  _170
REMARK   75  A    between atoms: _170  and  _171
REMARK   76  A    between atoms: _177  and  _179
REMARK   77  A    between atoms: _179  and  _180
REMARK   78  A    between atoms: _179  and  _182
REMARK   79  A    between atoms: _182  and  _183
REMARK   80  A    between atoms: _186  and  _188
REMARK   81  A    between atoms: _188  and  _189
REMARK   82  A    between atoms: _188  and  _191
REMARK   83  A    between atoms: _191  and  _192
REMARK   84  A    between atoms: _197  and  _199
REMARK   85  A    between atoms: _199  and  _200
REMARK   86  A    between atoms: _199  and  _202
REMARK   87  A    between atoms: _202  and  _203
REMARK   88  A    between atoms: _208  and  _210
REMARK   89  A    between atoms: _210  and  _211
REMARK   90  A    between atoms: _210  and  _213
REMARK   91  A    between atoms: _213  and  _214
REMARK   92  A    between atoms: _217  and  _219
REMARK   93  A    between atoms: _219  and  _220
REMARK   94  A    between atoms: _223  and  _225
REMARK   95  A    between atoms: _225  and  _226
REMARK   96  A    between atoms: _225  and  _228
REMARK   97  A    between atoms: _228  and  _229
REMARK   98  A    between atoms: _232  and  _234
REMARK   99  A    between atoms: _234  and  _235
REMARK  100  A    between atoms: _234  and  _237
REMARK  101  A    between atoms: _237  and  _238
REMARK  102  A    between atoms: _244  and  _246
REMARK  103  A    between atoms: _246  and  _247
REMARK  104  A    between atoms: _246  and  _249
REMARK  105  A    between atoms: _249  and  _250
REMARK  106  A    between atoms: _253  and  _255
REMARK  107  A    between atoms: _255  and  _256
REMARK  108  A    between atoms: _255  and  _258
REMARK  109  A    between atoms: _258  and  _259
REMARK  110  A    between atoms: _262  and  _264
REMARK  111  A    between atoms: _264  and  _265
REMARK  112  A    between atoms: _264  and  _267
REMARK  113  A    between atoms: _267  and  _268
REMARK  114  A    between atoms: _271  and  _273
REMARK  115  A    between atoms: _273  and  _274
REMARK  116  A    between atoms: _276  and  _278
REMARK  117  A    between atoms: _278  and  _279
REMARK  118  A    between atoms: _278  and  _281
REMARK  119  A    between atoms: _281  and  _282
REMARK  120  A    between atoms: _285  and  _287
REMARK  121  A    between atoms: _287  and  _288
REMARK  122  A    between atoms: _287  and  _290
REMARK  123  A    between atoms: _290  and  _291
REMARK  124  A    between atoms: _294  and  _296
REMARK  125  A    between atoms: _296  and  _297
REMARK  126  A    between atoms: _296  and  _299
REMARK  127  A    between atoms: _299  and  _300
REMARK  128  A    between atoms: _303  and  _305
REMARK  129  A    between atoms: _305  and  _306
REMARK  130  A    between atoms: _305  and  _308
REMARK  131  A    between atoms: _308  and  _309
REMARK  132  A    between atoms: _312  and  _314
REMARK  133  A    between atoms: _314  and  _315
REMARK  134  A    between atoms: _314  and  _317
REMARK  135  A    between atoms: _317  and  _318
REMARK  136  A    between atoms: _321  and  _323
REMARK  137  A    between atoms: _323  and  _324
REMARK  138  A    between atoms: _323  and  _326
REMARK  139  A    between atoms: _326  and  _327
REMARK  140  A    between atoms: _330  and  _332
REMARK  141  A    between atoms: _332  and  _333
REMARK  142  A    between atoms: _332  and  _335
REMARK  143  A    between atoms: _335  and  _336
REMARK  144  A    between atoms: _338  and  _340
REMARK  145  A    between atoms: _340  and  _341
REMARK  146  A    between atoms: _340  and  _343
REMARK  147  A    between atoms: _343  and  _344
REMARK  148  A    between atoms: _349  and  _351
REMARK  149  A    between atoms: _351  and  _352
REMARK  150  A    between atoms: _355  and  _357
REMARK  151  A    between atoms: _357  and  _358
REMARK  152  A    between atoms: _360  and  _362
REMARK  153  A    between atoms: _362  and  _363
REMARK  154  A    between atoms: _365  and  _367
REMARK  155  A    between atoms: _367  and  _368
REMARK  156  A    between atoms: _367  and  _370
REMARK  157  A    between atoms: _370  and  _371
REMARK  158  A    between atoms: _376  and  _377
REMARK  159  A    between atoms: _379  and  _381
REMARK  160  A    between atoms: _381  and  _382
REMARK  161  A    between atoms: _381  and  _384
REMARK  162  A    between atoms: _384  and  _385
REMARK  163  A    between atoms: _390  and  _391
REMARK  164  A    between atoms: _393  and  _395
REMARK  165  A    between atoms: _395  and  _396
REMARK  166  A    between atoms: _395  and  _398
REMARK  167  A    between atoms: _398  and  _399
REMARK  168  A    between atoms: _401  and  _403
REMARK  169  A    between atoms: _403  and  _404
REMARK  170  A    between atoms: _403  and  _406
REMARK  171  A    between atoms: _406  and  _407
REMARK  172  A    between atoms: _410  and  _412
REMARK  173  A    between atoms: _412  and  _413
REMARK  174  A    between atoms: _415  and  _417
REMARK  175  A    between atoms: _417  and  _418
REMARK  176  A    between atoms: _420  and  _422
REMARK  177  A    between atoms: _422  and  _423
REMARK  178  A    between atoms: _422  and  _425
REMARK  179  A    between atoms: _425  and  _426
REMARK  180  A    between atoms: _429  and  _431
REMARK  181  A    between atoms: _431  and  _432
REMARK  182  A    between atoms: _431  and  _434
REMARK  183  A    between atoms: _434  and  _435
REMARK  184  A    between atoms: _435  and  _436
REMARK  185  A    between atoms: _441  and  _443
REMARK  186  A    between atoms: _443  and  _444
REMARK  187  A    between atoms: _443  and  _446
REMARK  188  A    between atoms: _446  and  _447
REMARK  189  A    between atoms: _449  and  _451
REMARK  190  A    between atoms: _451  and  _452
REMARK  191  A    between atoms: _451  and  _454
REMARK  192  A    between atoms: _454  and  _455
REMARK  193  A    between atoms: _460  and  _462
REMARK  194  A    between atoms: _462  and  _463
REMARK  195  A    between atoms: _462  and  _465
REMARK  196  A    between atoms: _465  and  _466
REMARK  197  A    between atoms: _468  and  _470
REMARK  198  A    between atoms: _470  and  _471
REMARK  199  A    between atoms: _473  and  _475
REMARK  200  A    between atoms: _475  and  _476
REMARK  201  A    between atoms: _475  and  _478
REMARK  202  A    between atoms: _478  and  _479
REMARK  203  A    between atoms: _482  and  _484
REMARK  204  A    between atoms: _484  and  _485
REMARK  205  A    between atoms: _484  and  _487
REMARK  206  A    between atoms: _487  and  _488
REMARK  207  A    between atoms: _494  and  _496
REMARK  208  A    between atoms: _496  and  _497
REMARK  209  A    between atoms: _496  and  _499
REMARK  210  A    between atoms: _499  and  _500
REMARK  211  A    between atoms: _502  and  _504
REMARK  212  A    between atoms: _504  and  _505
REMARK  213  A    between atoms: _504  and  _507
REMARK  214  A    between atoms: _507  and  _508
REMARK  215  A    between atoms: _511  and  _513
REMARK  216  A    between atoms: _513  and  _514
REMARK  217  A    between atoms: _516  and  _518
REMARK  218  A    between atoms: _518  and  _519
REMARK  219  A    between atoms: _518  and  _521
REMARK  220  A    between atoms: _521  and  _522
REMARK  221  A    between atoms: _525  and  _527
REMARK  222  A    between atoms: _527  and  _528
REMARK  223  A    between atoms: _527  and  _530
REMARK  224  A    between atoms: _530  and  _531
REMARK  225  A    between atoms: _533  and  _535
REMARK  226  A    between atoms: _535  and  _536
REMARK  227  A    between atoms: _538  and  _540
REMARK  228  A    between atoms: _540  and  _541
REMARK  229  A    between atoms: _540  and  _543
REMARK  230  A    between atoms: _543  and  _544
REMARK  231  A    between atoms: _549  and  _550
REMARK  232  A    between atoms: _552  and  _554
REMARK  233  A    between atoms: _554  and  _555
REMARK  234  A    between atoms: _554  and  _557
REMARK  235  A    between atoms: _557  and  _558
REMARK  236  A    between atoms: _561  and  _563
REMARK  237  A    between atoms: _563  and  _564
REMARK  238  A    between atoms: _563  and  _566
REMARK  239  A    between atoms: _566  and  _567
REMARK  240  A    between atoms: _567  and  _568
REMARK  241  A    between atoms: _574  and  _575
REMARK  242  A    between atoms: _580  and  _582
REMARK  243  A    between atoms: _582  and  _583
REMARK  244  A    between atoms: _582  and  _585
REMARK  245  A    between atoms: _585  and  _586
REMARK  246  A    between atoms: _586  and  _587
REMARK                            x       y       z     vdW  Elec       q    Type
REMARK                         _______ _______ _______ _____ _____    ______ ____
ROOT
ATOM      1  O   HOH     1      20.675  -2.480  19.668  0.00  0.00    +0.000 OA
ENDROOT
TORSDOF 0
REMARK  Name = ../refined-set-2016/2wec/2wec_pocket.pdb
REMARK  246 active torsions:
REMARK  status: ('A' for Active; 'I' for Inactive)
REMARK    1  A    between atoms: _1  and  _3
REMARK    2  A    between atoms: _3  and  _4
REMARK    3  A    between atoms: _3  and  _6
REMARK    4  A    between atoms: _6  and  _7
REMARK    5  A    between atoms: _10  and  _12
REMARK    6  A    between atoms: _12  and  _13
REMARK    7  A    between atoms: _12  and  _15
REMARK    8  A    between atoms: _15  and  _16
REMARK    9  A    between atoms: _19  and  _21
REMARK   10  A    between atoms: _21  and  _22
REMARK   11  A    between atoms: _21  and  _24
REMARK   12  A    between atoms: _24  and  _25
REMARK   13  A    between atoms: _25  and  _26
REMARK   14  A    between atoms: _29  and  _31
REMARK   15  A    between atoms: _31  and  _32
REMARK   16  A    between atoms: _31  and  _34
REMARK   17  A    between atoms: _34  and  _35
REMARK   18  A    between atoms: _35  and  _36
REMARK   19  A    between atoms: _39  and  _41
REMARK   20  A    between atoms: _41  and  _42
REMARK   21  A    between atoms: _41  and  _44
REMARK   22  A    between atoms: _44  and  _45
REMARK   23  A    between atoms: _50  and  _51
REMARK   24  A    between atoms: _53  and  _55
REMARK   25  A    between atoms: _55  and  _56
REMARK   26  A    between atoms: _55  and  _58
REMARK   27  A    between atoms: _58  and  _59
REMARK   28  A    between atoms: _64  and  _66
REMARK   29  A    between atoms: _66  and  _67
REMARK   30  A    between atoms: _66  and  _69
REMARK   31  A    between atoms: _69  and  _70
REMARK   32  A    between atoms: _73  and  _75
REMARK   33  A    between atoms: _75  and  _76
REMARK   34  A    between atoms: _75  and  _78
REMARK   35  A    between atoms: _78  and  _79
REMARK   36  A    between atoms: _82  and  _84
REMARK   37  A    between atoms: _84  and  _85
REMARK   38  A    between atoms: _87  and  _89
REMARK   39  A    between atoms: _89  and  _90
REMARK   40  A    between atoms: _89  and  _92
REMARK   41  A    between atoms: _92  and  _93
REMARK   42  A    between atoms: _95  and  _97
REMARK   43  A    between atoms: _97  and  _98
REMARK   44  A    between atoms: _97  and  _100
REMARK   45  A    between atoms: _100  and  _101
REMARK   46  A    between atoms: _104  and  _106
REMARK   47  A    between atoms: _106  and  _107
REMARK   48  A    between atoms: _106  and  _109
REMARK   49  A    between atoms: _109  and  _110
REMARK   50  A    between atoms: _112  and  _114
REMARK   51  A    between atoms: _114  and  _115
REMARK   52  A    between atoms: _114  and  _117
REMARK   53  A    between atoms: _117  and  _118
REMARK   54  A    between atoms: _123  and  _124
REMARK   55  A    between atoms: _126  and  _128
REMARK   56  A    between atoms: _128  and  _129
REMARK   57  A    between atoms: _131  and  _133
REMARK   58  A    between atoms: _133  and  _134
REMARK   59  A    between atoms: _133  and  _136
REMARK   60  A    between atoms: _136  and  _137
REMARK   61  A    between atoms: _140  and  _142
REMARK   62  A    between atoms: _142  and  _143
REMARK   63  A    between atoms: _145  and  _147
REMARK   64  A    between atoms: _147  and  _148
REMARK   65  A    between atoms: _147  and  _150
REMARK   66  A    between atoms: _150  and  _151
REMARK   67  A    between atoms: _153  and  _155
REMARK   68  A    between atoms: _155  and  _156
REMARK   69  A    between atoms: _155  and  _158
REMARK   70  A    between atoms: _158  and  _159
REMARK   71  A    between atoms: _159  and  _160
REMARK   72  A    between atoms: _165  and  _167
REMARK   73  A    between atoms: _167  and  _168
REMARK   74  A    between atoms: _167  and  _170
REMARK   75  A    between atoms: _170  and  _171
REMARK   76  A    between atoms: _177  and  _179
REMARK   77  A    between atoms: _179  and  _180
REMARK   78  A    between atoms: _179  and  _182
REMARK   79  A    between atoms: _182  and  _183
REMARK   80  A    between atoms: _186  and  _188
REMARK   81  A    between atoms: _188  and  _189
REMARK   82  A    between atoms: _188  and  _191
REMARK   83  A    between atoms: _191  and  _192
REMARK   84  A    between atoms: _197  and  _199
REMARK   85  A    between atoms: _199  and  _200
REMARK   86  A    between atoms: _199  and  _202
REMARK   87  A    between atoms: _202  and  _203
REMARK   88  A    between atoms: _208  and  _210
REMARK   89  A    between atoms: _210  and  _211
REMARK   90  A    between atoms: _210  and  _213
REMARK   91  A    between atoms: _213  and  _214
REMARK   92  A    between atoms: _217  and  _219
REMARK   93  A    between atoms: _219  and  _220
REMARK   94  A    between atoms: _223  and  _225
REMARK   95  A    between atoms: _225  and  _226
REMARK   96  A    between atoms: _225  and  _228
REMARK   97  A    between atoms: _228  and  _229
REMARK   98  A    between atoms: _232  and  _234
REMARK   99  A    between atoms: _234  and  _235
REMARK  100  A    between atoms: _234  and  _237
REMARK  101  A    between atoms: _237  and  _238
REMARK  102  A    between atoms: _244  and  _246
REMARK  103  A    between atoms: _246  and  _247
REMARK  104  A    between atoms: _246  and  _249
REMARK  105  A    between atoms: _249  and  _250
REMARK  106  A    between atoms: _253  and  _255
REMARK  107  A    between atoms: _255  and  _256
REMARK  108  A    between atoms: _255  and  _258
REMARK  109  A    between atoms: _258  and  _259
REMARK  110  A    between atoms: _262  and  _264
REMARK  111  A    between atoms: _264  and  _265
REMARK  112  A    between atoms: _264  and  _267
REMARK  113  A    between atoms: _267  and  _268
REMARK  114  A    between atoms: _271  and  _273
REMARK  115  A    between atoms: _273  and  _274
REMARK  116  A    between atoms: _276  and  _278
REMARK  117  A    between atoms: _278  and  _279
REMARK  118  A    between atoms: _278  and  _281
REMARK  119  A    between atoms: _281  and  _282
REMARK  120  A    between atoms: _285  and  _287
REMARK  121  A    between atoms: _287  and  _288
REMARK  122  A    between atoms: _287  and  _290
REMARK  123  A    between atoms: _290  and  _291
REMARK  124  A    between atoms: _294  and  _296
REMARK  125  A    between atoms: _296  and  _297
REMARK  126  A    between atoms: _296  and  _299
REMARK  127  A    between atoms: _299  and  _300
REMARK  128  A    between atoms: _303  and  _305
REMARK  129  A    between atoms: _305  and  _306
REMARK  130  A    between atoms: _305  and  _308
REMARK  131  A    between atoms: _308  and  _309
REMARK  132  A    between atoms: _312  and  _314
REMARK  133  A    between atoms: _314  and  _315
REMARK  134  A    between atoms: _314  and  _317
REMARK  135  A    between atoms: _317  and  _318
REMARK  136  A    between atoms: _321  and  _323
REMARK  137  A    between atoms: _323  and  _324
REMARK  138  A    between atoms: _323  and  _326
REMARK  139  A    between atoms: _326  and  _327
REMARK  140  A    between atoms: _330  and  _332
REMARK  141  A    between atoms: _332  and  _333
REMARK  142  A    between atoms: _332  and  _335
REMARK  143  A    between atoms: _335  and  _336
REMARK  144  A    between atoms: _338  and  _340
REMARK  145  A    between atoms: _340  and  _341
REMARK  146  A    between atoms: _340  and  _343
REMARK  147  A    between atoms: _343  and  _344
REMARK  148  A    between atoms: _349  and  _351
REMARK  149  A    between atoms: _351  and  _352
REMARK  150  A    between atoms: _355  and  _357
REMARK  151  A    between atoms: _357  and  _358
REMARK  152  A    between atoms: _360  and  _362
REMARK  153  A    between atoms: _362  and  _363
REMARK  154  A    between atoms: _365  and  _367
REMARK  155  A    between atoms: _367  and  _368
REMARK  156  A    between atoms: _367  and  _370
REMARK  157  A    between atoms: _370  and  _371
REMARK  158  A    between atoms: _376  and  _377
REMARK  159  A    between atoms: _379  and  _381
REMARK  160  A    between atoms: _381  and  _382
REMARK  161  A    between atoms: _381  and  _384
REMARK  162  A    between atoms: _384  and  _385
REMARK  163  A    between atoms: _390  and  _391
REMARK  164  A    between atoms: _393  and  _395
REMARK  165  A    between atoms: _395  and  _396
REMARK  166  A    between atoms: _395  and  _398
REMARK  167  A    between atoms: _398  and  _399
REMARK  168  A    between atoms: _401  and  _403
REMARK  169  A    between atoms: _403  and  _404
REMARK  170  A    between atoms: _403  and  _406
REMARK  171  A    between atoms: _406  and  _407
REMARK  172  A    between atoms: _410  and  _412
REMARK  173  A    between atoms: _412  and  _413
REMARK  174  A    between atoms: _415  and  _417
REMARK  175  A    between atoms: _417  and  _418
REMARK  176  A    between atoms: _420  and  _422
REMARK  177  A    between atoms: _422  and  _423
REMARK  178  A    between atoms: _422  and  _425
REMARK  179  A    between atoms: _425  and  _426
REMARK  180  A    between atoms: _429  and  _431
REMARK  181  A    between atoms: _431  and  _432
REMARK  182  A    between atoms: _431  and  _434
REMARK  183  A    between atoms: _434  and  _435
REMARK  184  A    between atoms: _435  and  _436
REMARK  185  A    between atoms: _441  and  _443
REMARK  186  A    between atoms: _443  and  _444
REMARK  187  A    between atoms: _443  and  _446
REMARK  188  A    between atoms: _446  and  _447
REMARK  189  A    between atoms: _449  and  _451
REMARK  190  A    between atoms: _451  and  _452
REMARK  191  A    between atoms: _451  and  _454
REMARK  192  A    between atoms: _454  and  _455
REMARK  193  A    between atoms: _460  and  _462
REMARK  194  A    between atoms: _462  and  _463
REMARK  195  A    between atoms: _462  and  _465
REMARK  196  A    between atoms: _465  and  _466
REMARK  197  A    between atoms: _468  and  _470
REMARK  198  A    between atoms: _470  and  _471
REMARK  199  A    between atoms: _473  and  _475
REMARK  200  A    between atoms: _475  and  _476
REMARK  201  A    between atoms: _475  and  _478
REMARK  202  A    between atoms: _478  and  _479
REMARK  203  A    between atoms: _482  and  _484
REMARK  204  A    between atoms: _484  and  _485
REMARK  205  A    between atoms: _484  and  _487
REMARK  206  A    between atoms: _487  and  _488
REMARK  207  A    between atoms: _494  and  _496
REMARK  208  A    between atoms: _496  and  _497
REMARK  209  A    between atoms: _496  and  _499
REMARK  210  A    between atoms: _499  and  _500
REMARK  211  A    between atoms: _502  and  _504
REMARK  212  A    between atoms: _504  and  _505
REMARK  213  A    between atoms: _504  and  _507
REMARK  214  A    between atoms: _507  and  _508
REMARK  215  A    between atoms: _511  and  _513
REMARK  216  A    between atoms: _513  and  _514
REMARK  217  A    between atoms: _516  and  _518
REMARK  218  A    between atoms: _518  and  _519
REMARK  219  A    between atoms: _518  and  _521
REMARK  220  A    between atoms: _521  and  _522
REMARK  221  A    between atoms: _525  and  _527
REMARK  222  A    between atoms: _527  and  _528
REMARK  223  A    between atoms: _527  and  _530
REMARK  224  A    between atoms: _530  and  _531
REMARK  225  A    between atoms: _533  and  _535
REMARK  226  A    between atoms: _535  and  _536
REMARK  227  A    between atoms: _538  and  _540
REMARK  228  A    between atoms: _540  and  _541
REMARK  229  A    between atoms: _540  and  _543
REMARK  230  A    between atoms: _543  and  _544
REMARK  231  A    between atoms: _549  and  _550
REMARK  232  A    between atoms: _552  and  _554
REMARK  233  A    between atoms: _554  and  _555
REMARK  234  A    between atoms: _554  and  _557
REMARK  235  A    between atoms: _557  and  _558
REMARK  236  A    between atoms: _561  and  _563
REMARK  237  A    between atoms: _563  and  _564
REMARK  238  A    between atoms: _563  and  _566
REMARK  239  A    between atoms: _566  and  _567
REMARK  240  A    between atoms: _567  and  _568
REMARK  241  A    between atoms: _574  and  _575
REMARK  242  A    between atoms: _580  and  _582
REMARK  243  A    between atoms: _582  and  _583
REMARK  244  A    between atoms: _582  and  _585
REMARK  245  A    between atoms: _585  and  _586
REMARK  246  A    between atoms: _586  and  _587
REMARK                            x       y       z     vdW  Elec       q    Type
REMARK                         _______ _______ _______ _____ _____    ______ ____
ROOT
ATOM      1  O   HOH     1      10.204  -0.174  17.210  0.00  0.00    +0.000 OA
ENDROOT
TORSDOF 0
REMARK  Name = ../refined-set-2016/2wec/2wec_pocket.pdb
REMARK  246 active torsions:
REMARK  status: ('A' for Active; 'I' for Inactive)
REMARK    1  A    between atoms: _1  and  _3
REMARK    2  A    between atoms: _3  and  _4
REMARK    3  A    between atoms: _3  and  _6
REMARK    4  A    between atoms: _6  and  _7
REMARK    5  A    between atoms: _10  and  _12
REMARK    6  A    between atoms: _12  and  _13
REMARK    7  A    between atoms: _12  and  _15
REMARK    8  A    between atoms: _15  and  _16
REMARK    9  A    between atoms: _19  and  _21
REMARK   10  A    between atoms: _21  and  _22
REMARK   11  A    between atoms: _21  and  _24
REMARK   12  A    between atoms: _24  and  _25
REMARK   13  A    between atoms: _25  and  _26
REMARK   14  A    between atoms: _29  and  _31
REMARK   15  A    between atoms: _31  and  _32
REMARK   16  A    between atoms: _31  and  _34
REMARK   17  A    between atoms: _34  and  _35
REMARK   18  A    between atoms: _35  and  _36
REMARK   19  A    between atoms: _39  and  _41
REMARK   20  A    between atoms: _41  and  _42
REMARK   21  A    between atoms: _41  and  _44
REMARK   22  A    between atoms: _44  and  _45
REMARK   23  A    between atoms: _50  and  _51
REMARK   24  A    between atoms: _53  and  _55
REMARK   25  A    between atoms: _55  and  _56
REMARK   26  A    between atoms: _55  and  _58
REMARK   27  A    between atoms: _58  and  _59
REMARK   28  A    between atoms: _64  and  _66
REMARK   29  A    between atoms: _66  and  _67
REMARK   30  A    between atoms: _66  and  _69
REMARK   31  A    between atoms: _69  and  _70
REMARK   32  A    between atoms: _73  and  _75
REMARK   33  A    between atoms: _75  and  _76
REMARK   34  A    between atoms: _75  and  _78
REMARK   35  A    between atoms: _78  and  _79
REMARK   36  A    between atoms: _82  and  _84
REMARK   37  A    between atoms: _84  and  _85
REMARK   38  A    between atoms: _87  and  _89
REMARK   39  A    between atoms: _89  and  _90
REMARK   40  A    between atoms: _89  and  _92
REMARK   41  A    between atoms: _92  and  _93
REMARK   42  A    between atoms: _95  and  _97
REMARK   43  A    between atoms: _97  and  _98
REMARK   44  A    between atoms: _97  and  _100
REMARK   45  A    between atoms: _100  and  _101
REMARK   46  A    between atoms: _104  and  _106
REMARK   47  A    between atoms: _106  and  _107
REMARK   48  A    between atoms: _106  and  _109
REMARK   49  A    between atoms: _109  and  _110
REMARK   50  A    between atoms: _112  and  _114
REMARK   51  A    between atoms: _114  and  _115
REMARK   52  A    between atoms: _114  and  _117
REMARK   53  A    between atoms: _117  and  _118
REMARK   54  A    between atoms: _123  and  _124
REMARK   55  A    between atoms: _126  and  _128
REMARK   56  A    between atoms: _128  and  _129
REMARK   57  A    between atoms: _131  and  _133
REMARK   58  A    between atoms: _133  and  _134
REMARK   59  A    between atoms: _133  and  _136
REMARK   60  A    between atoms: _136  and  _137
REMARK   61  A    between atoms: _140  and  _142
REMARK   62  A    between atoms: _142  and  _143
REMARK   63  A    between atoms: _145  and  _147
REMARK   64  A    between atoms: _147  and  _148
REMARK   65  A    between atoms: _147  and  _150
REMARK   66  A    between atoms: _150  and  _151
REMARK   67  A    between atoms: _153  and  _155
REMARK   68  A    between atoms: _155  and  _156
REMARK   69  A    between atoms: _155  and  _158
REMARK   70  A    between atoms: _158  and  _159
REMARK   71  A    between atoms: _159  and  _160
REMARK   72  A    between atoms: _165  and  _167
REMARK   73  A    between atoms: _167  and  _168
REMARK   74  A    between atoms: _167  and  _170
REMARK   75  A    between atoms: _170  and  _171
REMARK   76  A    between atoms: _177  and  _179
REMARK   77  A    between atoms: _179  and  _180
REMARK   78  A    between atoms: _179  and  _182
REMARK   79  A    between atoms: _182  and  _183
REMARK   80  A    between atoms: _186  and  _188
REMARK   81  A    between atoms: _188  and  _189
REMARK   82  A    between atoms: _188  and  _191
REMARK   83  A    between atoms: _191  and  _192
REMARK   84  A    between atoms: _197  and  _199
REMARK   85  A    between atoms: _199  and  _200
REMARK   86  A    between atoms: _199  and  _202
REMARK   87  A    between atoms: _202  and  _203
REMARK   88  A    between atoms: _208  and  _210
REMARK   89  A    between atoms: _210  and  _211
REMARK   90  A    between atoms: _210  and  _213
REMARK   91  A    between atoms: _213  and  _214
REMARK   92  A    between atoms: _217  and  _219
REMARK   93  A    between atoms: _219  and  _220
REMARK   94  A    between atoms: _223  and  _225
REMARK   95  A    between atoms: _225  and  _226
REMARK   96  A    between atoms: _225  and  _228
REMARK   97  A    between atoms: _228  and  _229
REMARK   98  A    between atoms: _232  and  _234
REMARK   99  A    between atoms: _234  and  _235
REMARK  100  A    between atoms: _234  and  _237
REMARK  101  A    between atoms: _237  and  _238
REMARK  102  A    between atoms: _244  and  _246
REMARK  103  A    between atoms: _246  and  _247
REMARK  104  A    between atoms: _246  and  _249
REMARK  105  A    between atoms: _249  and  _250
REMARK  106  A    between atoms: _253  and  _255
REMARK  107  A    between atoms: _255  and  _256
REMARK  108  A    between atoms: _255  and  _258
REMARK  109  A    between atoms: _258  and  _259
REMARK  110  A    between atoms: _262  and  _264
REMARK  111  A    between atoms: _264  and  _265
REMARK  112  A    between atoms: _264  and  _267
REMARK  113  A    between atoms: _267  and  _268
REMARK  114  A    between atoms: _271  and  _273
REMARK  115  A    between atoms: _273  and  _274
REMARK  116  A    between atoms: _276  and  _278
REMARK  117  A    between atoms: _278  and  _279
REMARK  118  A    between atoms: _278  and  _281
REMARK  119  A    between atoms: _281  and  _282
REMARK  120  A    between atoms: _285  and  _287
REMARK  121  A    between atoms: _287  and  _288
REMARK  122  A    between atoms: _287  and  _290
REMARK  123  A    between atoms: _290  and  _291
REMARK  124  A    between atoms: _294  and  _296
REMARK  125  A    between atoms: _296  and  _297
REMARK  126  A    between atoms: _296  and  _299
REMARK  127  A    between atoms: _299  and  _300
REMARK  128  A    between atoms: _303  and  _305
REMARK  129  A    between atoms: _305  and  _306
REMARK  130  A    between atoms: _305  and  _308
REMARK  131  A    between atoms: _308  and  _309
REMARK  132  A    between atoms: _312  and  _314
REMARK  133  A    between atoms: _314  and  _315
REMARK  134  A    between atoms: _314  and  _317
REMARK  135  A    between atoms: _317  and  _318
REMARK  136  A    between atoms: _321  and  _323
REMARK  137  A    between atoms: _323  and  _324
REMARK  138  A    between atoms: _323  and  _326
REMARK  139  A    between atoms: _326  and  _327
REMARK  140  A    between atoms: _330  and  _332
REMARK  141  A    between atoms: _332  and  _333
REMARK  142  A    between atoms: _332  and  _335
REMARK  143  A    between atoms: _335  and  _336
REMARK  144  A    between atoms: _338  and  _340
REMARK  145  A    between atoms: _340  and  _341
REMARK  146  A    between atoms: _340  and  _343
REMARK  147  A    between atoms: _343  and  _344
REMARK  148  A    between atoms: _349  and  _351
REMARK  149  A    between atoms: _351  and  _352
REMARK  150  A    between atoms: _355  and  _357
REMARK  151  A    between atoms: _357  and  _358
REMARK  152  A    between atoms: _360  and  _362
REMARK  153  A    between atoms: _362  and  _363
REMARK  154  A    between atoms: _365  and  _367
REMARK  155  A    between atoms: _367  and  _368
REMARK  156  A    between atoms: _367  and  _370
REMARK  157  A    between atoms: _370  and  _371
REMARK  158  A    between atoms: _376  and  _377
REMARK  159  A    between atoms: _379  and  _381
REMARK  160  A    between atoms: _381  and  _382
REMARK  161  A    between atoms: _381  and  _384
REMARK  162  A    between atoms: _384  and  _385
REMARK  163  A    between atoms: _390  and  _391
REMARK  164  A    between atoms: _393  and  _395
REMARK  165  A    between atoms: _395  and  _396
REMARK  166  A    between atoms: _395  and  _398
REMARK  167  A    between atoms: _398  and  _399
REMARK  168  A    between atoms: _401  and  _403
REMARK  169  A    between atoms: _403  and  _404
REMARK  170  A    between atoms: _403  and  _406
REMARK  171  A    between atoms: _406  and  _407
REMARK  172  A    between atoms: _410  and  _412
REMARK  173  A    between atoms: _412  and  _413
REMARK  174  A    between atoms: _415  and  _417
REMARK  175  A    between atoms: _417  and  _418
REMARK  176  A    between atoms: _420  and  _422
REMARK  177  A    between atoms: _422  and  _423
REMARK  178  A    between atoms: _422  and  _425
REMARK  179  A    between atoms: _425  and  _426
REMARK  180  A    between atoms: _429  and  _431
REMARK  181  A    between atoms: _431  and  _432
REMARK  182  A    between atoms: _431  and  _434
REMARK  183  A    between atoms: _434  and  _435
REMARK  184  A    between atoms: _435  and  _436
REMARK  185  A    between atoms: _441  and  _443
REMARK  186  A    between atoms: _443  and  _444
REMARK  187  A    between atoms: _443  and  _446
REMARK  188  A    between atoms: _446  and  _447
REMARK  189  A    between atoms: _449  and  _451
REMARK  190  A    between atoms: _451  and  _452
REMARK  191  A    between atoms: _451  and  _454
REMARK  192  A    between atoms: _454  and  _455
REMARK  193  A    between atoms: _460  and  _462
REMARK  194  A    between atoms: _462  and  _463
REMARK  195  A    between atoms: _462  and  _465
REMARK  196  A    between atoms: _465  and  _466
REMARK  197  A    between atoms: _468  and  _470
REMARK  198  A    between atoms: _470  and  _471
REMARK  199  A    between atoms: _473  and  _475
REMARK  200  A    between atoms: _475  and  _476
REMARK  201  A    between atoms: _475  and  _478
REMARK  202  A    between atoms: _478  and  _479
REMARK  203  A    between atoms: _482  and  _484
REMARK  204  A    between atoms: _484  and  _485
REMARK  205  A    between atoms: _484  and  _487
REMARK  206  A    between atoms: _487  and  _488
REMARK  207  A    between atoms: _494  and  _496
REMARK  208  A    between atoms: _496  and  _497
REMARK  209  A    between atoms: _496  and  _499
REMARK  210  A    between atoms: _499  and  _500
REMARK  211  A    between atoms: _502  and  _504
REMARK  212  A    between atoms: _504  and  _505
REMARK  213  A    between atoms: _504  and  _507
REMARK  214  A    between atoms: _507  and  _508
REMARK  215  A    between atoms: _511  and  _513
REMARK  216  A    between atoms: _513  and  _514
REMARK  217  A    between atoms: _516  and  _518
REMARK  218  A    between atoms: _518  and  _519
REMARK  219  A    between atoms: _518  and  _521
REMARK  220  A    between atoms: _521  and  _522
REMARK  221  A    between atoms: _525  and  _527
REMARK  222  A    between atoms: _527  and  _528
REMARK  223  A    between atoms: _527  and  _530
REMARK  224  A    between atoms: _530  and  _531
REMARK  225  A    between atoms: _533  and  _535
REMARK  226  A    between atoms: _535  and  _536
REMARK  227  A    between atoms: _538  and  _540
REMARK  228  A    between atoms: _540  and  _541
REMARK  229  A    between atoms: _540  and  _543
REMARK  230  A    between atoms: _543  and  _544
REMARK  231  A    between atoms: _549  and  _550
REMARK  232  A    between atoms: _552  and  _554
REMARK  233  A    between atoms: _554  and  _555
REMARK  234  A    between atoms: _554  and  _557
REMARK  235  A    between atoms: _557  and  _558
REMARK  236  A    between atoms: _561  and  _563
REMARK  237  A    between atoms: _563  and  _564
REMARK  238  A    between atoms: _563  and  _566
REMARK  239  A    between atoms: _566  and  _567
REMARK  240  A    between atoms: _567  and  _568
REMARK  241  A    between atoms: _574  and  _575
REMARK  242  A    between atoms: _580  and  _582
REMARK  243  A    between atoms: _582  and  _583
REMARK  244  A    between atoms: _582  and  _585
REMARK  245  A    between atoms: _585  and  _586
REMARK  246  A    between atoms: _586  and  _587
REMARK                            x       y       z     vdW  Elec       q    Type
REMARK                         _______ _______ _______ _____ _____    ______ ____
ROOT
ATOM      1  O   HOH     1      26.972  14.254  24.712  0.00  0.00    +0.000 OA
ENDROOT
TORSDOF 0
REMARK  Name = ../refined-set-2016/2wec/2wec_pocket.pdb
REMARK  246 active torsions:
REMARK  status: ('A' for Active; 'I' for Inactive)
REMARK    1  A    between atoms: _1  and  _3
REMARK    2  A    between atoms: _3  and  _4
REMARK    3  A    between atoms: _3  and  _6
REMARK    4  A    between atoms: _6  and  _7
REMARK    5  A    between atoms: _10  and  _12
REMARK    6  A    between atoms: _12  and  _13
REMARK    7  A    between atoms: _12  and  _15
REMARK    8  A    between atoms: _15  and  _16
REMARK    9  A    between atoms: _19  and  _21
REMARK   10  A    between atoms: _21  and  _22
REMARK   11  A    between atoms: _21  and  _24
REMARK   12  A    between atoms: _24  and  _25
REMARK   13  A    between atoms: _25  and  _26
REMARK   14  A    between atoms: _29  and  _31
REMARK   15  A    between atoms: _31  and  _32
REMARK   16  A    between atoms: _31  and  _34
REMARK   17  A    between atoms: _34  and  _35
REMARK   18  A    between atoms: _35  and  _36
REMARK   19  A    between atoms: _39  and  _41
REMARK   20  A    between atoms: _41  and  _42
REMARK   21  A    between atoms: _41  and  _44
REMARK   22  A    between atoms: _44  and  _45
REMARK   23  A    between atoms: _50  and  _51
REMARK   24  A    between atoms: _53  and  _55
REMARK   25  A    between atoms: _55  and  _56
REMARK   26  A    between atoms: _55  and  _58
REMARK   27  A    between atoms: _58  and  _59
REMARK   28  A    between atoms: _64  and  _66
REMARK   29  A    between atoms: _66  and  _67
REMARK   30  A    between atoms: _66  and  _69
REMARK   31  A    between atoms: _69  and  _70
REMARK   32  A    between atoms: _73  and  _75
REMARK   33  A    between atoms: _75  and  _76
REMARK   34  A    between atoms: _75  and  _78
REMARK   35  A    between atoms: _78  and  _79
REMARK   36  A    between atoms: _82  and  _84
REMARK   37  A    between atoms: _84  and  _85
REMARK   38  A    between atoms: _87  and  _89
REMARK   39  A    between atoms: _89  and  _90
REMARK   40  A    between atoms: _89  and  _92
REMARK   41  A    between atoms: _92  and  _93
REMARK   42  A    between atoms: _95  and  _97
REMARK   43  A    between atoms: _97  and  _98
REMARK   44  A    between atoms: _97  and  _100
REMARK   45  A    between atoms: _100  and  _101
REMARK   46  A    between atoms: _104  and  _106
REMARK   47  A    between atoms: _106  and  _107
REMARK   48  A    between atoms: _106  and  _109
REMARK   49  A    between atoms: _109  and  _110
REMARK   50  A    between atoms: _112  and  _114
REMARK   51  A    between atoms: _114  and  _115
REMARK   52  A    between atoms: _114  and  _117
REMARK   53  A    between atoms: _117  and  _118
REMARK   54  A    between atoms: _123  and  _124
REMARK   55  A    between atoms: _126  and  _128
REMARK   56  A    between atoms: _128  and  _129
REMARK   57  A    between atoms: _131  and  _133
REMARK   58  A    between atoms: _133  and  _134
REMARK   59  A    between atoms: _133  and  _136
REMARK   60  A    between atoms: _136  and  _137
REMARK   61  A    between atoms: _140  and  _142
REMARK   62  A    between atoms: _142  and  _143
REMARK   63  A    between atoms: _145  and  _147
REMARK   64  A    between atoms: _147  and  _148
REMARK   65  A    between atoms: _147  and  _150
REMARK   66  A    between atoms: _150  and  _151
REMARK   67  A    between atoms: _153  and  _155
REMARK   68  A    between atoms: _155  and  _156
REMARK   69  A    between atoms: _155  and  _158
REMARK   70  A    between atoms: _158  and  _159
REMARK   71  A    between atoms: _159  and  _160
REMARK   72  A    between atoms: _165  and  _167
REMARK   73  A    between atoms: _167  and  _168
REMARK   74  A    between atoms: _167  and  _170
REMARK   75  A    between atoms: _170  and  _171
REMARK   76  A    between atoms: _177  and  _179
REMARK   77  A    between atoms: _179  and  _180
REMARK   78  A    between atoms: _179  and  _182
REMARK   79  A    between atoms: _182  and  _183
REMARK   80  A    between atoms: _186  and  _188
REMARK   81  A    between atoms: _188  and  _189
REMARK   82  A    between atoms: _188  and  _191
REMARK   83  A    between atoms: _191  and  _192
REMARK   84  A    between atoms: _197  and  _199
REMARK   85  A    between atoms: _199  and  _200
REMARK   86  A    between atoms: _199  and  _202
REMARK   87  A    between atoms: _202  and  _203
REMARK   88  A    between atoms: _208  and  _210
REMARK   89  A    between atoms: _210  and  _211
REMARK   90  A    between atoms: _210  and  _213
REMARK   91  A    between atoms: _213  and  _214
REMARK   92  A    between atoms: _217  and  _219
REMARK   93  A    between atoms: _219  and  _220
REMARK   94  A    between atoms: _223  and  _225
REMARK   95  A    between atoms: _225  and  _226
REMARK   96  A    between atoms: _225  and  _228
REMARK   97  A    between atoms: _228  and  _229
REMARK   98  A    between atoms: _232  and  _234
REMARK   99  A    between atoms: _234  and  _235
REMARK  100  A    between atoms: _234  and  _237
REMARK  101  A    between atoms: _237  and  _238
REMARK  102  A    between atoms: _244  and  _246
REMARK  103  A    between atoms: _246  and  _247
REMARK  104  A    between atoms: _246  and  _249
REMARK  105  A    between atoms: _249  and  _250
REMARK  106  A    between atoms: _253  and  _255
REMARK  107  A    between atoms: _255  and  _256
REMARK  108  A    between atoms: _255  and  _258
REMARK  109  A    between atoms: _258  and  _259
REMARK  110  A    between atoms: _262  and  _264
REMARK  111  A    between atoms: _264  and  _265
REMARK  112  A    between atoms: _264  and  _267
REMARK  113  A    between atoms: _267  and  _268
REMARK  114  A    between atoms: _271  and  _273
REMARK  115  A    between atoms: _273  and  _274
REMARK  116  A    between atoms: _276  and  _278
REMARK  117  A    between atoms: _278  and  _279
REMARK  118  A    between atoms: _278  and  _281
REMARK  119  A    between atoms: _281  and  _282
REMARK  120  A    between atoms: _285  and  _287
REMARK  121  A    between atoms: _287  and  _288
REMARK  122  A    between atoms: _287  and  _290
REMARK  123  A    between atoms: _290  and  _291
REMARK  124  A    between atoms: _294  and  _296
REMARK  125  A    between atoms: _296  and  _297
REMARK  126  A    between atoms: _296  and  _299
REMARK  127  A    between atoms: _299  and  _300
REMARK  128  A    between atoms: _303  and  _305
REMARK  129  A    between atoms: _305  and  _306
REMARK  130  A    between atoms: _305  and  _308
REMARK  131  A    between atoms: _308  and  _309
REMARK  132  A    between atoms: _312  and  _314
REMARK  133  A    between atoms: _314  and  _315
REMARK  134  A    between atoms: _314  and  _317
REMARK  135  A    between atoms: _317  and  _318
REMARK  136  A    between atoms: _321  and  _323
REMARK  137  A    between atoms: _323  and  _324
REMARK  138  A    between atoms: _323  and  _326
REMARK  139  A    between atoms: _326  and  _327
REMARK  140  A    between atoms: _330  and  _332
REMARK  141  A    between atoms: _332  and  _333
REMARK  142  A    between atoms: _332  and  _335
REMARK  143  A    between atoms: _335  and  _336
REMARK  144  A    between atoms: _338  and  _340
REMARK  145  A    between atoms: _340  and  _341
REMARK  146  A    between atoms: _340  and  _343
REMARK  147  A    between atoms: _343  and  _344
REMARK  148  A    between atoms: _349  and  _351
REMARK  149  A    between atoms: _351  and  _352
REMARK  150  A    between atoms: _355  and  _357
REMARK  151  A    between atoms: _357  and  _358
REMARK  152  A    between atoms: _360  and  _362
REMARK  153  A    between atoms: _362  and  _363
REMARK  154  A    between atoms: _365  and  _367
REMARK  155  A    between atoms: _367  and  _368
REMARK  156  A    between atoms: _367  and  _370
REMARK  157  A    between atoms: _370  and  _371
REMARK  158  A    between atoms: _376  and  _377
REMARK  159  A    between atoms: _379  and  _381
REMARK  160  A    between atoms: _381  and  _382
REMARK  161  A    between atoms: _381  and  _384
REMARK  162  A    between atoms: _384  and  _385
REMARK  163  A    between atoms: _390  and  _391
REMARK  164  A    between atoms: _393  and  _395
REMARK  165  A    between atoms: _395  and  _396
REMARK  166  A    between atoms: _395  and  _398
REMARK  167  A    between atoms: _398  and  _399
REMARK  168  A    between atoms: _401  and  _403
REMARK  169  A    between atoms: _403  and  _404
REMARK  170  A    between atoms: _403  and  _406
REMARK  171  A    between atoms: _406  and  _407
REMARK  172  A    between atoms: _410  and  _412
REMARK  173  A    between atoms: _412  and  _413
REMARK  174  A    between atoms: _415  and  _417
REMARK  175  A    between atoms: _417  and  _418
REMARK  176  A    between atoms: _420  and  _422
REMARK  177  A    between atoms: _422  and  _423
REMARK  178  A    between atoms: _422  and  _425
REMARK  179  A    between atoms: _425  and  _426
REMARK  180  A    between atoms: _429  and  _431
REMARK  181  A    between atoms: _431  and  _432
REMARK  182  A    between atoms: _431  and  _434
REMARK  183  A    between atoms: _434  and  _435
REMARK  184  A    between atoms: _435  and  _436
REMARK  185  A    between atoms: _441  and  _443
REMARK  186  A    between atoms: _443  and  _444
REMARK  187  A    between atoms: _443  and  _446
REMARK  188  A    between atoms: _446  and  _447
REMARK  189  A    between atoms: _449  and  _451
REMARK  190  A    between atoms: _451  and  _452
REMARK  191  A    between atoms: _451  and  _454
REMARK  192  A    between atoms: _454  and  _455
REMARK  193  A    between atoms: _460  and  _462
REMARK  194  A    between atoms: _462  and  _463
REMARK  195  A    between atoms: _462  and  _465
REMARK  196  A    between atoms: _465  and  _466
REMARK  197  A    between atoms: _468  and  _470
REMARK  198  A    between atoms: _470  and  _471
REMARK  199  A    between atoms: _473  and  _475
REMARK  200  A    between atoms: _475  and  _476
REMARK  201  A    between atoms: _475  and  _478
REMARK  202  A    between atoms: _478  and  _479
REMARK  203  A    between atoms: _482  and  _484
REMARK  204  A    between atoms: _484  and  _485
REMARK  205  A    between atoms: _484  and  _487
REMARK  206  A    between atoms: _487  and  _488
REMARK  207  A    between atoms: _494  and  _496
REMARK  208  A    between atoms: _496  and  _497
REMARK  209  A    between atoms: _496  and  _499
REMARK  210  A    between atoms: _499  and  _500
REMARK  211  A    between atoms: _502  and  _504
REMARK  212  A    between atoms: _504  and  _505
REMARK  213  A    between atoms: _504  and  _507
REMARK  214  A    between atoms: _507  and  _508
REMARK  215  A    between atoms: _511  and  _513
REMARK  216  A    between atoms: _513  and  _514
REMARK  217  A    between atoms: _516  and  _518
REMARK  218  A    between atoms: _518  and  _519
REMARK  219  A    between atoms: _518  and  _521
REMARK  220  A    between atoms: _521  and  _522
REMARK  221  A    between atoms: _525  and  _527
REMARK  222  A    between atoms: _527  and  _528
REMARK  223  A    between atoms: _527  and  _530
REMARK  224  A    between atoms: _530  and  _531
REMARK  225  A    between atoms: _533  and  _535
REMARK  226  A    between atoms: _535  and  _536
REMARK  227  A    between atoms: _538  and  _540
REMARK  228  A    between atoms: _540  and  _541
REMARK  229  A    between atoms: _540  and  _543
REMARK  230  A    between atoms: _543  and  _544
REMARK  231  A    between atoms: _549  and  _550
REMARK  232  A    between atoms: _552  and  _554
REMARK  233  A    between atoms: _554  and  _555
REMARK  234  A    between atoms: _554  and  _557
REMARK  235  A    between atoms: _557  and  _558
REMARK  236  A    between atoms: _561  and  _563
REMARK  237  A    between atoms: _563  and  _564
REMARK  238  A    between atoms: _563  and  _566
REMARK  239  A    between atoms: _566  and  _567
REMARK  240  A    between atoms: _567  and  _568
REMARK  241  A    between atoms: _574  and  _575
REMARK  242  A    between atoms: _580  and  _582
REMARK  243  A    between atoms: _582  and  _583
REMARK  244  A    between atoms: _582  and  _585
REMARK  245  A    between atoms: _585  and  _586
REMARK  246  A    between atoms: _586  and  _587
REMARK                            x       y       z     vdW  Elec       q    Type
REMARK                         _______ _______ _______ _____ _____    ______ ____
ROOT
ATOM      1  O   HOH     1      11.023  -4.511  18.226  0.00  0.00    +0.000 OA
ENDROOT
TORSDOF 0
REMARK  Name = ../refined-set-2016/2wec/2wec_pocket.pdb
REMARK  246 active torsions:
REMARK  status: ('A' for Active; 'I' for Inactive)
REMARK    1  A    between atoms: _1  and  _3
REMARK    2  A    between atoms: _3  and  _4
REMARK    3  A    between atoms: _3  and  _6
REMARK    4  A    between atoms: _6  and  _7
REMARK    5  A    between atoms: _10  and  _12
REMARK    6  A    between atoms: _12  and  _13
REMARK    7  A    between atoms: _12  and  _15
REMARK    8  A    between atoms: _15  and  _16
REMARK    9  A    between atoms: _19  and  _21
REMARK   10  A    between atoms: _21  and  _22
REMARK   11  A    between atoms: _21  and  _24
REMARK   12  A    between atoms: _24  and  _25
REMARK   13  A    between atoms: _25  and  _26
REMARK   14  A    between atoms: _29  and  _31
REMARK   15  A    between atoms: _31  and  _32
REMARK   16  A    between atoms: _31  and  _34
REMARK   17  A    between atoms: _34  and  _35
REMARK   18  A    between atoms: _35  and  _36
REMARK   19  A    between atoms: _39  and  _41
REMARK   20  A    between atoms: _41  and  _42
REMARK   21  A    between atoms: _41  and  _44
REMARK   22  A    between atoms: _44  and  _45
REMARK   23  A    between atoms: _50  and  _51
REMARK   24  A    between atoms: _53  and  _55
REMARK   25  A    between atoms: _55  and  _56
REMARK   26  A    between atoms: _55  and  _58
REMARK   27  A    between atoms: _58  and  _59
REMARK   28  A    between atoms: _64  and  _66
REMARK   29  A    between atoms: _66  and  _67
REMARK   30  A    between atoms: _66  and  _69
REMARK   31  A    between atoms: _69  and  _70
REMARK   32  A    between atoms: _73  and  _75
REMARK   33  A    between atoms: _75  and  _76
REMARK   34  A    between atoms: _75  and  _78
REMARK   35  A    between atoms: _78  and  _79
REMARK   36  A    between atoms: _82  and  _84
REMARK   37  A    between atoms: _84  and  _85
REMARK   38  A    between atoms: _87  and  _89
REMARK   39  A    between atoms: _89  and  _90
REMARK   40  A    between atoms: _89  and  _92
REMARK   41  A    between atoms: _92  and  _93
REMARK   42  A    between atoms: _95  and  _97
REMARK   43  A    between atoms: _97  and  _98
REMARK   44  A    between atoms: _97  and  _100
REMARK   45  A    between atoms: _100  and  _101
REMARK   46  A    between atoms: _104  and  _106
REMARK   47  A    between atoms: _106  and  _107
REMARK   48  A    between atoms: _106  and  _109
REMARK   49  A    between atoms: _109  and  _110
REMARK   50  A    between atoms: _112  and  _114
REMARK   51  A    between atoms: _114  and  _115
REMARK   52  A    between atoms: _114  and  _117
REMARK   53  A    between atoms: _117  and  _118
REMARK   54  A    between atoms: _123  and  _124
REMARK   55  A    between atoms: _126  and  _128
REMARK   56  A    between atoms: _128  and  _129
REMARK   57  A    between atoms: _131  and  _133
REMARK   58  A    between atoms: _133  and  _134
REMARK   59  A    between atoms: _133  and  _136
REMARK   60  A    between atoms: _136  and  _137
REMARK   61  A    between atoms: _140  and  _142
REMARK   62  A    between atoms: _142  and  _143
REMARK   63  A    between atoms: _145  and  _147
REMARK   64  A    between atoms: _147  and  _148
REMARK   65  A    between atoms: _147  and  _150
REMARK   66  A    between atoms: _150  and  _151
REMARK   67  A    between atoms: _153  and  _155
REMARK   68  A    between atoms: _155  and  _156
REMARK   69  A    between atoms: _155  and  _158
REMARK   70  A    between atoms: _158  and  _159
REMARK   71  A    between atoms: _159  and  _160
REMARK   72  A    between atoms: _165  and  _167
REMARK   73  A    between atoms: _167  and  _168
REMARK   74  A    between atoms: _167  and  _170
REMARK   75  A    between atoms: _170  and  _171
REMARK   76  A    between atoms: _177  and  _179
REMARK   77  A    between atoms: _179  and  _180
REMARK   78  A    between atoms: _179  and  _182
REMARK   79  A    between atoms: _182  and  _183
REMARK   80  A    between atoms: _186  and  _188
REMARK   81  A    between atoms: _188  and  _189
REMARK   82  A    between atoms: _188  and  _191
REMARK   83  A    between atoms: _191  and  _192
REMARK   84  A    between atoms: _197  and  _199
REMARK   85  A    between atoms: _199  and  _200
REMARK   86  A    between atoms: _199  and  _202
REMARK   87  A    between atoms: _202  and  _203
REMARK   88  A    between atoms: _208  and  _210
REMARK   89  A    between atoms: _210  and  _211
REMARK   90  A    between atoms: _210  and  _213
REMARK   91  A    between atoms: _213  and  _214
REMARK   92  A    between atoms: _217  and  _219
REMARK   93  A    between atoms: _219  and  _220
REMARK   94  A    between atoms: _223  and  _225
REMARK   95  A    between atoms: _225  and  _226
REMARK   96  A    between atoms: _225  and  _228
REMARK   97  A    between atoms: _228  and  _229
REMARK   98  A    between atoms: _232  and  _234
REMARK   99  A    between atoms: _234  and  _235
REMARK  100  A    between atoms: _234  and  _237
REMARK  101  A    between atoms: _237  and  _238
REMARK  102  A    between atoms: _244  and  _246
REMARK  103  A    between atoms: _246  and  _247
REMARK  104  A    between atoms: _246  and  _249
REMARK  105  A    between atoms: _249  and  _250
REMARK  106  A    between atoms: _253  and  _255
REMARK  107  A    between atoms: _255  and  _256
REMARK  108  A    between atoms: _255  and  _258
REMARK  109  A    between atoms: _258  and  _259
REMARK  110  A    between atoms: _262  and  _264
REMARK  111  A    between atoms: _264  and  _265
REMARK  112  A    between atoms: _264  and  _267
REMARK  113  A    between atoms: _267  and  _268
REMARK  114  A    between atoms: _271  and  _273
REMARK  115  A    between atoms: _273  and  _274
REMARK  116  A    between atoms: _276  and  _278
REMARK  117  A    between atoms: _278  and  _279
REMARK  118  A    between atoms: _278  and  _281
REMARK  119  A    between atoms: _281  and  _282
REMARK  120  A    between atoms: _285  and  _287
REMARK  121  A    between atoms: _287  and  _288
REMARK  122  A    between atoms: _287  and  _290
REMARK  123  A    between atoms: _290  and  _291
REMARK  124  A    between atoms: _294  and  _296
REMARK  125  A    between atoms: _296  and  _297
REMARK  126  A    between atoms: _296  and  _299
REMARK  127  A    between atoms: _299  and  _300
REMARK  128  A    between atoms: _303  and  _305
REMARK  129  A    between atoms: _305  and  _306
REMARK  130  A    between atoms: _305  and  _308
REMARK  131  A    between atoms: _308  and  _309
REMARK  132  A    between atoms: _312  and  _314
REMARK  133  A    between atoms: _314  and  _315
REMARK  134  A    between atoms: _314  and  _317
REMARK  135  A    between atoms: _317  and  _318
REMARK  136  A    between atoms: _321  and  _323
REMARK  137  A    between atoms: _323  and  _324
REMARK  138  A    between atoms: _323  and  _326
REMARK  139  A    between atoms: _326  and  _327
REMARK  140  A    between atoms: _330  and  _332
REMARK  141  A    between atoms: _332  and  _333
REMARK  142  A    between atoms: _332  and  _335
REMARK  143  A    between atoms: _335  and  _336
REMARK  144  A    between atoms: _338  and  _340
REMARK  145  A    between atoms: _340  and  _341
REMARK  146  A    between atoms: _340  and  _343
REMARK  147  A    between atoms: _343  and  _344
REMARK  148  A    between atoms: _349  and  _351
REMARK  149  A    between atoms: _351  and  _352
REMARK  150  A    between atoms: _355  and  _357
REMARK  151  A    between atoms: _357  and  _358
REMARK  152  A    between atoms: _360  and  _362
REMARK  153  A    between atoms: _362  and  _363
REMARK  154  A    between atoms: _365  and  _367
REMARK  155  A    between atoms: _367  and  _368
REMARK  156  A    between atoms: _367  and  _370
REMARK  157  A    between atoms: _370  and  _371
REMARK  158  A    between atoms: _376  and  _377
REMARK  159  A    between atoms: _379  and  _381
REMARK  160  A    between atoms: _381  and  _382
REMARK  161  A    between atoms: _381  and  _384
REMARK  162  A    between atoms: _384  and  _385
REMARK  163  A    between atoms: _390  and  _391
REMARK  164  A    between atoms: _393  and  _395
REMARK  165  A    between atoms: _395  and  _396
REMARK  166  A    between atoms: _395  and  _398
REMARK  167  A    between atoms: _398  and  _399
REMARK  168  A    between atoms: _401  and  _403
REMARK  169  A    between atoms: _403  and  _404
REMARK  170  A    between atoms: _403  and  _406
REMARK  171  A    between atoms: _406  and  _407
REMARK  172  A    between atoms: _410  and  _412
REMARK  173  A    between atoms: _412  and  _413
REMARK  174  A    between atoms: _415  and  _417
REMARK  175  A    between atoms: _417  and  _418
REMARK  176  A    between atoms: _420  and  _422
REMARK  177  A    between atoms: _422  and  _423
REMARK  178  A    between atoms: _422  and  _425
REMARK  179  A    between atoms: _425  and  _426
REMARK  180  A    between atoms: _429  and  _431
REMARK  181  A    between atoms: _431  and  _432
REMARK  182  A    between atoms: _431  and  _434
REMARK  183  A    between atoms: _434  and  _435
REMARK  184  A    between atoms: _435  and  _436
REMARK  185  A    between atoms: _441  and  _443
REMARK  186  A    between atoms: _443  and  _444
REMARK  187  A    between atoms: _443  and  _446
REMARK  188  A    between atoms: _446  and  _447
REMARK  189  A    between atoms: _449  and  _451
REMARK  190  A    between atoms: _451  and  _452
REMARK  191  A    between atoms: _451  and  _454
REMARK  192  A    between atoms: _454  and  _455
REMARK  193  A    between atoms: _460  and  _462
REMARK  194  A    between atoms: _462  and  _463
REMARK  195  A    between atoms: _462  and  _465
REMARK  196  A    between atoms: _465  and  _466
REMARK  197  A    between atoms: _468  and  _470
REMARK  198  A    between atoms: _470  and  _471
REMARK  199  A    between atoms: _473  and  _475
REMARK  200  A    between atoms: _475  and  _476
REMARK  201  A    between atoms: _475  and  _478
REMARK  202  A    between atoms: _478  and  _479
REMARK  203  A    between atoms: _482  and  _484
REMARK  204  A    between atoms: _484  and  _485
REMARK  205  A    between atoms: _484  and  _487
REMARK  206  A    between atoms: _487  and  _488
REMARK  207  A    between atoms: _494  and  _496
REMARK  208  A    between atoms: _496  and  _497
REMARK  209  A    between atoms: _496  and  _499
REMARK  210  A    between atoms: _499  and  _500
REMARK  211  A    between atoms: _502  and  _504
REMARK  212  A    between atoms: _504  and  _505
REMARK  213  A    between atoms: _504  and  _507
REMARK  214  A    between atoms: _507  and  _508
REMARK  215  A    between atoms: _511  and  _513
REMARK  216  A    between atoms: _513  and  _514
REMARK  217  A    between atoms: _516  and  _518
REMARK  218  A    between atoms: _518  and  _519
REMARK  219  A    between atoms: _518  and  _521
REMARK  220  A    between atoms: _521  and  _522
REMARK  221  A    between atoms: _525  and  _527
REMARK  222  A    between atoms: _527  and  _528
REMARK  223  A    between atoms: _527  and  _530
REMARK  224  A    between atoms: _530  and  _531
REMARK  225  A    between atoms: _533  and  _535
REMARK  226  A    between atoms: _535  and  _536
REMARK  227  A    between atoms: _538  and  _540
REMARK  228  A    between atoms: _540  and  _541
REMARK  229  A    between atoms: _540  and  _543
REMARK  230  A    between atoms: _543  and  _544
REMARK  231  A    between atoms: _549  and  _550
REMARK  232  A    between atoms: _552  and  _554
REMARK  233  A    between atoms: _554  and  _555
REMARK  234  A    between atoms: _554  and  _557
REMARK  235  A    between atoms: _557  and  _558
REMARK  236  A    between atoms: _561  and  _563
REMARK  237  A    between atoms: _563  and  _564
REMARK  238  A    between atoms: _563  and  _566
REMARK  239  A    between atoms: _566  and  _567
REMARK  240  A    between atoms: _567  and  _568
REMARK  241  A    between atoms: _574  and  _575
REMARK  242  A    between atoms: _580  and  _582
REMARK  243  A    between atoms: _582  and  _583
REMARK  244  A    between atoms: _582  and  _585
REMARK  245  A    between atoms: _585  and  _586
REMARK  246  A    between atoms: _586  and  _587
REMARK                            x       y       z     vdW  Elec       q    Type
REMARK                         _______ _______ _______ _____ _____    ______ ____
ROOT
ATOM      1  O   HOH     1      16.296  -2.267  18.695  0.00  0.00    +0.000 OA
ENDROOT
TORSDOF 0
REMARK  Name = ../refined-set-2016/2wec/2wec_pocket.pdb
REMARK  246 active torsions:
REMARK  status: ('A' for Active; 'I' for Inactive)
REMARK    1  A    between atoms: _1  and  _3
REMARK    2  A    between atoms: _3  and  _4
REMARK    3  A    between atoms: _3  and  _6
REMARK    4  A    between atoms: _6  and  _7
REMARK    5  A    between atoms: _10  and  _12
REMARK    6  A    between atoms: _12  and  _13
REMARK    7  A    between atoms: _12  and  _15
REMARK    8  A    between atoms: _15  and  _16
REMARK    9  A    between atoms: _19  and  _21
REMARK   10  A    between atoms: _21  and  _22
REMARK   11  A    between atoms: _21  and  _24
REMARK   12  A    between atoms: _24  and  _25
REMARK   13  A    between atoms: _25  and  _26
REMARK   14  A    between atoms: _29  and  _31
REMARK   15  A    between atoms: _31  and  _32
REMARK   16  A    between atoms: _31  and  _34
REMARK   17  A    between atoms: _34  and  _35
REMARK   18  A    between atoms: _35  and  _36
REMARK   19  A    between atoms: _39  and  _41
REMARK   20  A    between atoms: _41  and  _42
REMARK   21  A    between atoms: _41  and  _44
REMARK   22  A    between atoms: _44  and  _45
REMARK   23  A    between atoms: _50  and  _51
REMARK   24  A    between atoms: _53  and  _55
REMARK   25  A    between atoms: _55  and  _56
REMARK   26  A    between atoms: _55  and  _58
REMARK   27  A    between atoms: _58  and  _59
REMARK   28  A    between atoms: _64  and  _66
REMARK   29  A    between atoms: _66  and  _67
REMARK   30  A    between atoms: _66  and  _69
REMARK   31  A    between atoms: _69  and  _70
REMARK   32  A    between atoms: _73  and  _75
REMARK   33  A    between atoms: _75  and  _76
REMARK   34  A    between atoms: _75  and  _78
REMARK   35  A    between atoms: _78  and  _79
REMARK   36  A    between atoms: _82  and  _84
REMARK   37  A    between atoms: _84  and  _85
REMARK   38  A    between atoms: _87  and  _89
REMARK   39  A    between atoms: _89  and  _90
REMARK   40  A    between atoms: _89  and  _92
REMARK   41  A    between atoms: _92  and  _93
REMARK   42  A    between atoms: _95  and  _97
REMARK   43  A    between atoms: _97  and  _98
REMARK   44  A    between atoms: _97  and  _100
REMARK   45  A    between atoms: _100  and  _101
REMARK   46  A    between atoms: _104  and  _106
REMARK   47  A    between atoms: _106  and  _107
REMARK   48  A    between atoms: _106  and  _109
REMARK   49  A    between atoms: _109  and  _110
REMARK   50  A    between atoms: _112  and  _114
REMARK   51  A    between atoms: _114  and  _115
REMARK   52  A    between atoms: _114  and  _117
REMARK   53  A    between atoms: _117  and  _118
REMARK   54  A    between atoms: _123  and  _124
REMARK   55  A    between atoms: _126  and  _128
REMARK   56  A    between atoms: _128  and  _129
REMARK   57  A    between atoms: _131  and  _133
REMARK   58  A    between atoms: _133  and  _134
REMARK   59  A    between atoms: _133  and  _136
REMARK   60  A    between atoms: _136  and  _137
REMARK   61  A    between atoms: _140  and  _142
REMARK   62  A    between atoms: _142  and  _143
REMARK   63  A    between atoms: _145  and  _147
REMARK   64  A    between atoms: _147  and  _148
REMARK   65  A    between atoms: _147  and  _150
REMARK   66  A    between atoms: _150  and  _151
REMARK   67  A    between atoms: _153  and  _155
REMARK   68  A    between atoms: _155  and  _156
REMARK   69  A    between atoms: _155  and  _158
REMARK   70  A    between atoms: _158  and  _159
REMARK   71  A    between atoms: _159  and  _160
REMARK   72  A    between atoms: _165  and  _167
REMARK   73  A    between atoms: _167  and  _168
REMARK   74  A    between atoms: _167  and  _170
REMARK   75  A    between atoms: _170  and  _171
REMARK   76  A    between atoms: _177  and  _179
REMARK   77  A    between atoms: _179  and  _180
REMARK   78  A    between atoms: _179  and  _182
REMARK   79  A    between atoms: _182  and  _183
REMARK   80  A    between atoms: _186  and  _188
REMARK   81  A    between atoms: _188  and  _189
REMARK   82  A    between atoms: _188  and  _191
REMARK   83  A    between atoms: _191  and  _192
REMARK   84  A    between atoms: _197  and  _199
REMARK   85  A    between atoms: _199  and  _200
REMARK   86  A    between atoms: _199  and  _202
REMARK   87  A    between atoms: _202  and  _203
REMARK   88  A    between atoms: _208  and  _210
REMARK   89  A    between atoms: _210  and  _211
REMARK   90  A    between atoms: _210  and  _213
REMARK   91  A    between atoms: _213  and  _214
REMARK   92  A    between atoms: _217  and  _219
REMARK   93  A    between atoms: _219  and  _220
REMARK   94  A    between atoms: _223  and  _225
REMARK   95  A    between atoms: _225  and  _226
REMARK   96  A    between atoms: _225  and  _228
REMARK   97  A    between atoms: _228  and  _229
REMARK   98  A    between atoms: _232  and  _234
REMARK   99  A    between atoms: _234  and  _235
REMARK  100  A    between atoms: _234  and  _237
REMARK  101  A    between atoms: _237  and  _238
REMARK  102  A    between atoms: _244  and  _246
REMARK  103  A    between atoms: _246  and  _247
REMARK  104  A    between atoms: _246  and  _249
REMARK  105  A    between atoms: _249  and  _250
REMARK  106  A    between atoms: _253  and  _255
REMARK  107  A    between atoms: _255  and  _256
REMARK  108  A    between atoms: _255  and  _258
REMARK  109  A    between atoms: _258  and  _259
REMARK  110  A    between atoms: _262  and  _264
REMARK  111  A    between atoms: _264  and  _265
REMARK  112  A    between atoms: _264  and  _267
REMARK  113  A    between atoms: _267  and  _268
REMARK  114  A    between atoms: _271  and  _273
REMARK  115  A    between atoms: _273  and  _274
REMARK  116  A    between atoms: _276  and  _278
REMARK  117  A    between atoms: _278  and  _279
REMARK  118  A    between atoms: _278  and  _281
REMARK  119  A    between atoms: _281  and  _282
REMARK  120  A    between atoms: _285  and  _287
REMARK  121  A    between atoms: _287  and  _288
REMARK  122  A    between atoms: _287  and  _290
REMARK  123  A    between atoms: _290  and  _291
REMARK  124  A    between atoms: _294  and  _296
REMARK  125  A    between atoms: _296  and  _297
REMARK  126  A    between atoms: _296  and  _299
REMARK  127  A    between atoms: _299  and  _300
REMARK  128  A    between atoms: _303  and  _305
REMARK  129  A    between atoms: _305  and  _306
REMARK  130  A    between atoms: _305  and  _308
REMARK  131  A    between atoms: _308  and  _309
REMARK  132  A    between atoms: _312  and  _314
REMARK  133  A    between atoms: _314  and  _315
REMARK  134  A    between atoms: _314  and  _317
REMARK  135  A    between atoms: _317  and  _318
REMARK  136  A    between atoms: _321  and  _323
REMARK  137  A    between atoms: _323  and  _324
REMARK  138  A    between atoms: _323  and  _326
REMARK  139  A    between atoms: _326  and  _327
REMARK  140  A    between atoms: _330  and  _332
REMARK  141  A    between atoms: _332  and  _333
REMARK  142  A    between atoms: _332  and  _335
REMARK  143  A    between atoms: _335  and  _336
REMARK  144  A    between atoms: _338  and  _340
REMARK  145  A    between atoms: _340  and  _341
REMARK  146  A    between atoms: _340  and  _343
REMARK  147  A    between atoms: _343  and  _344
REMARK  148  A    between atoms: _349  and  _351
REMARK  149  A    between atoms: _351  and  _352
REMARK  150  A    between atoms: _355  and  _357
REMARK  151  A    between atoms: _357  and  _358
REMARK  152  A    between atoms: _360  and  _362
REMARK  153  A    between atoms: _362  and  _363
REMARK  154  A    between atoms: _365  and  _367
REMARK  155  A    between atoms: _367  and  _368
REMARK  156  A    between atoms: _367  and  _370
REMARK  157  A    between atoms: _370  and  _371
REMARK  158  A    between atoms: _376  and  _377
REMARK  159  A    between atoms: _379  and  _381
REMARK  160  A    between atoms: _381  and  _382
REMARK  161  A    between atoms: _381  and  _384
REMARK  162  A    between atoms: _384  and  _385
REMARK  163  A    between atoms: _390  and  _391
REMARK  164  A    between atoms: _393  and  _395
REMARK  165  A    between atoms: _395  and  _396
REMARK  166  A    between atoms: _395  and  _398
REMARK  167  A    between atoms: _398  and  _399
REMARK  168  A    between atoms: _401  and  _403
REMARK  169  A    between atoms: _403  and  _404
REMARK  170  A    between atoms: _403  and  _406
REMARK  171  A    between atoms: _406  and  _407
REMARK  172  A    between atoms: _410  and  _412
REMARK  173  A    between atoms: _412  and  _413
REMARK  174  A    between atoms: _415  and  _417
REMARK  175  A    between atoms: _417  and  _418
REMARK  176  A    between atoms: _420  and  _422
REMARK  177  A    between atoms: _422  and  _423
REMARK  178  A    between atoms: _422  and  _425
REMARK  179  A    between atoms: _425  and  _426
REMARK  180  A    between atoms: _429  and  _431
REMARK  181  A    between atoms: _431  and  _432
REMARK  182  A    between atoms: _431  and  _434
REMARK  183  A    between atoms: _434  and  _435
REMARK  184  A    between atoms: _435  and  _436
REMARK  185  A    between atoms: _441  and  _443
REMARK  186  A    between atoms: _443  and  _444
REMARK  187  A    between atoms: _443  and  _446
REMARK  188  A    between atoms: _446  and  _447
REMARK  189  A    between atoms: _449  and  _451
REMARK  190  A    between atoms: _451  and  _452
REMARK  191  A    between atoms: _451  and  _454
REMARK  192  A    between atoms: _454  and  _455
REMARK  193  A    between atoms: _460  and  _462
REMARK  194  A    between atoms: _462  and  _463
REMARK  195  A    between atoms: _462  and  _465
REMARK  196  A    between atoms: _465  and  _466
REMARK  197  A    between atoms: _468  and  _470
REMARK  198  A    between atoms: _470  and  _471
REMARK  199  A    between atoms: _473  and  _475
REMARK  200  A    between atoms: _475  and  _476
REMARK  201  A    between atoms: _475  and  _478
REMARK  202  A    between atoms: _478  and  _479
REMARK  203  A    between atoms: _482  and  _484
REMARK  204  A    between atoms: _484  and  _485
REMARK  205  A    between atoms: _484  and  _487
REMARK  206  A    between atoms: _487  and  _488
REMARK  207  A    between atoms: _494  and  _496
REMARK  208  A    between atoms: _496  and  _497
REMARK  209  A    between atoms: _496  and  _499
REMARK  210  A    between atoms: _499  and  _500
REMARK  211  A    between atoms: _502  and  _504
REMARK  212  A    between atoms: _504  and  _505
REMARK  213  A    between atoms: _504  and  _507
REMARK  214  A    between atoms: _507  and  _508
REMARK  215  A    between atoms: _511  and  _513
REMARK  216  A    between atoms: _513  and  _514
REMARK  217  A    between atoms: _516  and  _518
REMARK  218  A    between atoms: _518  and  _519
REMARK  219  A    between atoms: _518  and  _521
REMARK  220  A    between atoms: _521  and  _522
REMARK  221  A    between atoms: _525  and  _527
REMARK  222  A    between atoms: _527  and  _528
REMARK  223  A    between atoms: _527  and  _530
REMARK  224  A    between atoms: _530  and  _531
REMARK  225  A    between atoms: _533  and  _535
REMARK  226  A    between atoms: _535  and  _536
REMARK  227  A    between atoms: _538  and  _540
REMARK  228  A    between atoms: _540  and  _541
REMARK  229  A    between atoms: _540  and  _543
REMARK  230  A    between atoms: _543  and  _544
REMARK  231  A    between atoms: _549  and  _550
REMARK  232  A    between atoms: _552  and  _554
REMARK  233  A    between atoms: _554  and  _555
REMARK  234  A    between atoms: _554  and  _557
REMARK  235  A    between atoms: _557  and  _558
REMARK  236  A    between atoms: _561  and  _563
REMARK  237  A    between atoms: _563  and  _564
REMARK  238  A    between atoms: _563  and  _566
REMARK  239  A    between atoms: _566  and  _567
REMARK  240  A    between atoms: _567  and  _568
REMARK  241  A    between atoms: _574  and  _575
REMARK  242  A    between atoms: _580  and  _582
REMARK  243  A    between atoms: _582  and  _583
REMARK  244  A    between atoms: _582  and  _585
REMARK  245  A    between atoms: _585  and  _586
REMARK  246  A    between atoms: _586  and  _587
REMARK                            x       y       z     vdW  Elec       q    Type
REMARK                         _______ _______ _______ _____ _____    ______ ____
ROOT
ATOM      1  O   HOH     1      12.381   6.880  25.326  0.00  0.00    +0.000 OA
ENDROOT
TORSDOF 0
REMARK  Name = ../refined-set-2016/2wec/2wec_pocket.pdb
REMARK  246 active torsions:
REMARK  status: ('A' for Active; 'I' for Inactive)
REMARK    1  A    between atoms: _1  and  _3
REMARK    2  A    between atoms: _3  and  _4
REMARK    3  A    between atoms: _3  and  _6
REMARK    4  A    between atoms: _6  and  _7
REMARK    5  A    between atoms: _10  and  _12
REMARK    6  A    between atoms: _12  and  _13
REMARK    7  A    between atoms: _12  and  _15
REMARK    8  A    between atoms: _15  and  _16
REMARK    9  A    between atoms: _19  and  _21
REMARK   10  A    between atoms: _21  and  _22
REMARK   11  A    between atoms: _21  and  _24
REMARK   12  A    between atoms: _24  and  _25
REMARK   13  A    between atoms: _25  and  _26
REMARK   14  A    between atoms: _29  and  _31
REMARK   15  A    between atoms: _31  and  _32
REMARK   16  A    between atoms: _31  and  _34
REMARK   17  A    between atoms: _34  and  _35
REMARK   18  A    between atoms: _35  and  _36
REMARK   19  A    between atoms: _39  and  _41
REMARK   20  A    between atoms: _41  and  _42
REMARK   21  A    between atoms: _41  and  _44
REMARK   22  A    between atoms: _44  and  _45
REMARK   23  A    between atoms: _50  and  _51
REMARK   24  A    between atoms: _53  and  _55
REMARK   25  A    between atoms: _55  and  _56
REMARK   26  A    between atoms: _55  and  _58
REMARK   27  A    between atoms: _58  and  _59
REMARK   28  A    between atoms: _64  and  _66
REMARK   29  A    between atoms: _66  and  _67
REMARK   30  A    between atoms: _66  and  _69
REMARK   31  A    between atoms: _69  and  _70
REMARK   32  A    between atoms: _73  and  _75
REMARK   33  A    between atoms: _75  and  _76
REMARK   34  A    between atoms: _75  and  _78
REMARK   35  A    between atoms: _78  and  _79
REMARK   36  A    between atoms: _82  and  _84
REMARK   37  A    between atoms: _84  and  _85
REMARK   38  A    between atoms: _87  and  _89
REMARK   39  A    between atoms: _89  and  _90
REMARK   40  A    between atoms: _89  and  _92
REMARK   41  A    between atoms: _92  and  _93
REMARK   42  A    between atoms: _95  and  _97
REMARK   43  A    between atoms: _97  and  _98
REMARK   44  A    between atoms: _97  and  _100
REMARK   45  A    between atoms: _100  and  _101
REMARK   46  A    between atoms: _104  and  _106
REMARK   47  A    between atoms: _106  and  _107
REMARK   48  A    between atoms: _106  and  _109
REMARK   49  A    between atoms: _109  and  _110
REMARK   50  A    between atoms: _112  and  _114
REMARK   51  A    between atoms: _114  and  _115
REMARK   52  A    between atoms: _114  and  _117
REMARK   53  A    between atoms: _117  and  _118
REMARK   54  A    between atoms: _123  and  _124
REMARK   55  A    between atoms: _126  and  _128
REMARK   56  A    between atoms: _128  and  _129
REMARK   57  A    between atoms: _131  and  _133
REMARK   58  A    between atoms: _133  and  _134
REMARK   59  A    between atoms: _133  and  _136
REMARK   60  A    between atoms: _136  and  _137
REMARK   61  A    between atoms: _140  and  _142
REMARK   62  A    between atoms: _142  and  _143
REMARK   63  A    between atoms: _145  and  _147
REMARK   64  A    between atoms: _147  and  _148
REMARK   65  A    between atoms: _147  and  _150
REMARK   66  A    between atoms: _150  and  _151
REMARK   67  A    between atoms: _153  and  _155
REMARK   68  A    between atoms: _155  and  _156
REMARK   69  A    between atoms: _155  and  _158
REMARK   70  A    between atoms: _158  and  _159
REMARK   71  A    between atoms: _159  and  _160
REMARK   72  A    between atoms: _165  and  _167
REMARK   73  A    between atoms: _167  and  _168
REMARK   74  A    between atoms: _167  and  _170
REMARK   75  A    between atoms: _170  and  _171
REMARK   76  A    between atoms: _177  and  _179
REMARK   77  A    between atoms: _179  and  _180
REMARK   78  A    between atoms: _179  and  _182
REMARK   79  A    between atoms: _182  and  _183
REMARK   80  A    between atoms: _186  and  _188
REMARK   81  A    between atoms: _188  and  _189
REMARK   82  A    between atoms: _188  and  _191
REMARK   83  A    between atoms: _191  and  _192
REMARK   84  A    between atoms: _197  and  _199
REMARK   85  A    between atoms: _199  and  _200
REMARK   86  A    between atoms: _199  and  _202
REMARK   87  A    between atoms: _202  and  _203
REMARK   88  A    between atoms: _208  and  _210
REMARK   89  A    between atoms: _210  and  _211
REMARK   90  A    between atoms: _210  and  _213
REMARK   91  A    between atoms: _213  and  _214
REMARK   92  A    between atoms: _217  and  _219
REMARK   93  A    between atoms: _219  and  _220
REMARK   94  A    between atoms: _223  and  _225
REMARK   95  A    between atoms: _225  and  _226
REMARK   96  A    between atoms: _225  and  _228
REMARK   97  A    between atoms: _228  and  _229
REMARK   98  A    between atoms: _232  and  _234
REMARK   99  A    between atoms: _234  and  _235
REMARK  100  A    between atoms: _234  and  _237
REMARK  101  A    between atoms: _237  and  _238
REMARK  102  A    between atoms: _244  and  _246
REMARK  103  A    between atoms: _246  and  _247
REMARK  104  A    between atoms: _246  and  _249
REMARK  105  A    between atoms: _249  and  _250
REMARK  106  A    between atoms: _253  and  _255
REMARK  107  A    between atoms: _255  and  _256
REMARK  108  A    between atoms: _255  and  _258
REMARK  109  A    between atoms: _258  and  _259
REMARK  110  A    between atoms: _262  and  _264
REMARK  111  A    between atoms: _264  and  _265
REMARK  112  A    between atoms: _264  and  _267
REMARK  113  A    between atoms: _267  and  _268
REMARK  114  A    between atoms: _271  and  _273
REMARK  115  A    between atoms: _273  and  _274
REMARK  116  A    between atoms: _276  and  _278
REMARK  117  A    between atoms: _278  and  _279
REMARK  118  A    between atoms: _278  and  _281
REMARK  119  A    between atoms: _281  and  _282
REMARK  120  A    between atoms: _285  and  _287
REMARK  121  A    between atoms: _287  and  _288
REMARK  122  A    between atoms: _287  and  _290
REMARK  123  A    between atoms: _290  and  _291
REMARK  124  A    between atoms: _294  and  _296
REMARK  125  A    between atoms: _296  and  _297
REMARK  126  A    between atoms: _296  and  _299
REMARK  127  A    between atoms: _299  and  _300
REMARK  128  A    between atoms: _303  and  _305
REMARK  129  A    between atoms: _305  and  _306
REMARK  130  A    between atoms: _305  and  _308
REMARK  131  A    between atoms: _308  and  _309
REMARK  132  A    between atoms: _312  and  _314
REMARK  133  A    between atoms: _314  and  _315
REMARK  134  A    between atoms: _314  and  _317
REMARK  135  A    between atoms: _317  and  _318
REMARK  136  A    between atoms: _321  and  _323
REMARK  137  A    between atoms: _323  and  _324
REMARK  138  A    between atoms: _323  and  _326
REMARK  139  A    between atoms: _326  and  _327
REMARK  140  A    between atoms: _330  and  _332
REMARK  141  A    between atoms: _332  and  _333
REMARK  142  A    between atoms: _332  and  _335
REMARK  143  A    between atoms: _335  and  _336
REMARK  144  A    between atoms: _338  and  _340
REMARK  145  A    between atoms: _340  and  _341
REMARK  146  A    between atoms: _340  and  _343
REMARK  147  A    between atoms: _343  and  _344
REMARK  148  A    between atoms: _349  and  _351
REMARK  149  A    between atoms: _351  and  _352
REMARK  150  A    between atoms: _355  and  _357
REMARK  151  A    between atoms: _357  and  _358
REMARK  152  A    between atoms: _360  and  _362
REMARK  153  A    between atoms: _362  and  _363
REMARK  154  A    between atoms: _365  and  _367
REMARK  155  A    between atoms: _367  and  _368
REMARK  156  A    between atoms: _367  and  _370
REMARK  157  A    between atoms: _370  and  _371
REMARK  158  A    between atoms: _376  and  _377
REMARK  159  A    between atoms: _379  and  _381
REMARK  160  A    between atoms: _381  and  _382
REMARK  161  A    between atoms: _381  and  _384
REMARK  162  A    between atoms: _384  and  _385
REMARK  163  A    between atoms: _390  and  _391
REMARK  164  A    between atoms: _393  and  _395
REMARK  165  A    between atoms: _395  and  _396
REMARK  166  A    between atoms: _395  and  _398
REMARK  167  A    between atoms: _398  and  _399
REMARK  168  A    between atoms: _401  and  _403
REMARK  169  A    between atoms: _403  and  _404
REMARK  170  A    between atoms: _403  and  _406
REMARK  171  A    between atoms: _406  and  _407
REMARK  172  A    between atoms: _410  and  _412
REMARK  173  A    between atoms: _412  and  _413
REMARK  174  A    between atoms: _415  and  _417
REMARK  175  A    between atoms: _417  and  _418
REMARK  176  A    between atoms: _420  and  _422
REMARK  177  A    between atoms: _422  and  _423
REMARK  178  A    between atoms: _422  and  _425
REMARK  179  A    between atoms: _425  and  _426
REMARK  180  A    between atoms: _429  and  _431
REMARK  181  A    between atoms: _431  and  _432
REMARK  182  A    between atoms: _431  and  _434
REMARK  183  A    between atoms: _434  and  _435
REMARK  184  A    between atoms: _435  and  _436
REMARK  185  A    between atoms: _441  and  _443
REMARK  186  A    between atoms: _443  and  _444
REMARK  187  A    between atoms: _443  and  _446
REMARK  188  A    between atoms: _446  and  _447
REMARK  189  A    between atoms: _449  and  _451
REMARK  190  A    between atoms: _451  and  _452
REMARK  191  A    between atoms: _451  and  _454
REMARK  192  A    between atoms: _454  and  _455
REMARK  193  A    between atoms: _460  and  _462
REMARK  194  A    between atoms: _462  and  _463
REMARK  195  A    between atoms: _462  and  _465
REMARK  196  A    between atoms: _465  and  _466
REMARK  197  A    between atoms: _468  and  _470
REMARK  198  A    between atoms: _470  and  _471
REMARK  199  A    between atoms: _473  and  _475
REMARK  200  A    between atoms: _475  and  _476
REMARK  201  A    between atoms: _475  and  _478
REMARK  202  A    between atoms: _478  and  _479
REMARK  203  A    between atoms: _482  and  _484
REMARK  204  A    between atoms: _484  and  _485
REMARK  205  A    between atoms: _484  and  _487
REMARK  206  A    between atoms: _487  and  _488
REMARK  207  A    between atoms: _494  and  _496
REMARK  208  A    between atoms: _496  and  _497
REMARK  209  A    between atoms: _496  and  _499
REMARK  210  A    between atoms: _499  and  _500
REMARK  211  A    between atoms: _502  and  _504
REMARK  212  A    between atoms: _504  and  _505
REMARK  213  A    between atoms: _504  and  _507
REMARK  214  A    between atoms: _507  and  _508
REMARK  215  A    between atoms: _511  and  _513
REMARK  216  A    between atoms: _513  and  _514
REMARK  217  A    between atoms: _516  and  _518
REMARK  218  A    between atoms: _518  and  _519
REMARK  219  A    between atoms: _518  and  _521
REMARK  220  A    between atoms: _521  and  _522
REMARK  221  A    between atoms: _525  and  _527
REMARK  222  A    between atoms: _527  and  _528
REMARK  223  A    between atoms: _527  and  _530
REMARK  224  A    between atoms: _530  and  _531
REMARK  225  A    between atoms: _533  and  _535
REMARK  226  A    between atoms: _535  and  _536
REMARK  227  A    between atoms: _538  and  _540
REMARK  228  A    between atoms: _540  and  _541
REMARK  229  A    between atoms: _540  and  _543
REMARK  230  A    between atoms: _543  and  _544
REMARK  231  A    between atoms: _549  and  _550
REMARK  232  A    between atoms: _552  and  _554
REMARK  233  A    between atoms: _554  and  _555
REMARK  234  A    between atoms: _554  and  _557
REMARK  235  A    between atoms: _557  and  _558
REMARK  236  A    between atoms: _561  and  _563
REMARK  237  A    between atoms: _563  and  _564
REMARK  238  A    between atoms: _563  and  _566
REMARK  239  A    between atoms: _566  and  _567
REMARK  240  A    between atoms: _567  and  _568
REMARK  241  A    between atoms: _574  and  _575
REMARK  242  A    between atoms: _580  and  _582
REMARK  243  A    between atoms: _582  and  _583
REMARK  244  A    between atoms: _582  and  _585
REMARK  245  A    between atoms: _585  and  _586
REMARK  246  A    between atoms: _586  and  _587
REMARK                            x       y       z     vdW  Elec       q    Type
REMARK                         _______ _______ _______ _____ _____    ______ ____
ROOT
ATOM      1  O   HOH     1      25.406   5.046  28.338  0.00  0.00    +0.000 OA
ENDROOT
TORSDOF 0
REMARK  Name = ../refined-set-2016/2wec/2wec_pocket.pdb
REMARK  246 active torsions:
REMARK  status: ('A' for Active; 'I' for Inactive)
REMARK    1  A    between atoms: _1  and  _3
REMARK    2  A    between atoms: _3  and  _4
REMARK    3  A    between atoms: _3  and  _6
REMARK    4  A    between atoms: _6  and  _7
REMARK    5  A    between atoms: _10  and  _12
REMARK    6  A    between atoms: _12  and  _13
REMARK    7  A    between atoms: _12  and  _15
REMARK    8  A    between atoms: _15  and  _16
REMARK    9  A    between atoms: _19  and  _21
REMARK   10  A    between atoms: _21  and  _22
REMARK   11  A    between atoms: _21  and  _24
REMARK   12  A    between atoms: _24  and  _25
REMARK   13  A    between atoms: _25  and  _26
REMARK   14  A    between atoms: _29  and  _31
REMARK   15  A    between atoms: _31  and  _32
REMARK   16  A    between atoms: _31  and  _34
REMARK   17  A    between atoms: _34  and  _35
REMARK   18  A    between atoms: _35  and  _36
REMARK   19  A    between atoms: _39  and  _41
REMARK   20  A    between atoms: _41  and  _42
REMARK   21  A    between atoms: _41  and  _44
REMARK   22  A    between atoms: _44  and  _45
REMARK   23  A    between atoms: _50  and  _51
REMARK   24  A    between atoms: _53  and  _55
REMARK   25  A    between atoms: _55  and  _56
REMARK   26  A    between atoms: _55  and  _58
REMARK   27  A    between atoms: _58  and  _59
REMARK   28  A    between atoms: _64  and  _66
REMARK   29  A    between atoms: _66  and  _67
REMARK   30  A    between atoms: _66  and  _69
REMARK   31  A    between atoms: _69  and  _70
REMARK   32  A    between atoms: _73  and  _75
REMARK   33  A    between atoms: _75  and  _76
REMARK   34  A    between atoms: _75  and  _78
REMARK   35  A    between atoms: _78  and  _79
REMARK   36  A    between atoms: _82  and  _84
REMARK   37  A    between atoms: _84  and  _85
REMARK   38  A    between atoms: _87  and  _89
REMARK   39  A    between atoms: _89  and  _90
REMARK   40  A    between atoms: _89  and  _92
REMARK   41  A    between atoms: _92  and  _93
REMARK   42  A    between atoms: _95  and  _97
REMARK   43  A    between atoms: _97  and  _98
REMARK   44  A    between atoms: _97  and  _100
REMARK   45  A    between atoms: _100  and  _101
REMARK   46  A    between atoms: _104  and  _106
REMARK   47  A    between atoms: _106  and  _107
REMARK   48  A    between atoms: _106  and  _109
REMARK   49  A    between atoms: _109  and  _110
REMARK   50  A    between atoms: _112  and  _114
REMARK   51  A    between atoms: _114  and  _115
REMARK   52  A    between atoms: _114  and  _117
REMARK   53  A    between atoms: _117  and  _118
REMARK   54  A    between atoms: _123  and  _124
REMARK   55  A    between atoms: _126  and  _128
REMARK   56  A    between atoms: _128  and  _129
REMARK   57  A    between atoms: _131  and  _133
REMARK   58  A    between atoms: _133  and  _134
REMARK   59  A    between atoms: _133  and  _136
REMARK   60  A    between atoms: _136  and  _137
REMARK   61  A    between atoms: _140  and  _142
REMARK   62  A    between atoms: _142  and  _143
REMARK   63  A    between atoms: _145  and  _147
REMARK   64  A    between atoms: _147  and  _148
REMARK   65  A    between atoms: _147  and  _150
REMARK   66  A    between atoms: _150  and  _151
REMARK   67  A    between atoms: _153  and  _155
REMARK   68  A    between atoms: _155  and  _156
REMARK   69  A    between atoms: _155  and  _158
REMARK   70  A    between atoms: _158  and  _159
REMARK   71  A    between atoms: _159  and  _160
REMARK   72  A    between atoms: _165  and  _167
REMARK   73  A    between atoms: _167  and  _168
REMARK   74  A    between atoms: _167  and  _170
REMARK   75  A    between atoms: _170  and  _171
REMARK   76  A    between atoms: _177  and  _179
REMARK   77  A    between atoms: _179  and  _180
REMARK   78  A    between atoms: _179  and  _182
REMARK   79  A    between atoms: _182  and  _183
REMARK   80  A    between atoms: _186  and  _188
REMARK   81  A    between atoms: _188  and  _189
REMARK   82  A    between atoms: _188  and  _191
REMARK   83  A    between atoms: _191  and  _192
REMARK   84  A    between atoms: _197  and  _199
REMARK   85  A    between atoms: _199  and  _200
REMARK   86  A    between atoms: _199  and  _202
REMARK   87  A    between atoms: _202  and  _203
REMARK   88  A    between atoms: _208  and  _210
REMARK   89  A    between atoms: _210  and  _211
REMARK   90  A    between atoms: _210  and  _213
REMARK   91  A    between atoms: _213  and  _214
REMARK   92  A    between atoms: _217  and  _219
REMARK   93  A    between atoms: _219  and  _220
REMARK   94  A    between atoms: _223  and  _225
REMARK   95  A    between atoms: _225  and  _226
REMARK   96  A    between atoms: _225  and  _228
REMARK   97  A    between atoms: _228  and  _229
REMARK   98  A    between atoms: _232  and  _234
REMARK   99  A    between atoms: _234  and  _235
REMARK  100  A    between atoms: _234  and  _237
REMARK  101  A    between atoms: _237  and  _238
REMARK  102  A    between atoms: _244  and  _246
REMARK  103  A    between atoms: _246  and  _247
REMARK  104  A    between atoms: _246  and  _249
REMARK  105  A    between atoms: _249  and  _250
REMARK  106  A    between atoms: _253  and  _255
REMARK  107  A    between atoms: _255  and  _256
REMARK  108  A    between atoms: _255  and  _258
REMARK  109  A    between atoms: _258  and  _259
REMARK  110  A    between atoms: _262  and  _264
REMARK  111  A    between atoms: _264  and  _265
REMARK  112  A    between atoms: _264  and  _267
REMARK  113  A    between atoms: _267  and  _268
REMARK  114  A    between atoms: _271  and  _273
REMARK  115  A    between atoms: _273  and  _274
REMARK  116  A    between atoms: _276  and  _278
REMARK  117  A    between atoms: _278  and  _279
REMARK  118  A    between atoms: _278  and  _281
REMARK  119  A    between atoms: _281  and  _282
REMARK  120  A    between atoms: _285  and  _287
REMARK  121  A    between atoms: _287  and  _288
REMARK  122  A    between atoms: _287  and  _290
REMARK  123  A    between atoms: _290  and  _291
REMARK  124  A    between atoms: _294  and  _296
REMARK  125  A    between atoms: _296  and  _297
REMARK  126  A    between atoms: _296  and  _299
REMARK  127  A    between atoms: _299  and  _300
REMARK  128  A    between atoms: _303  and  _305
REMARK  129  A    between atoms: _305  and  _306
REMARK  130  A    between atoms: _305  and  _308
REMARK  131  A    between atoms: _308  and  _309
REMARK  132  A    between atoms: _312  and  _314
REMARK  133  A    between atoms: _314  and  _315
REMARK  134  A    between atoms: _314  and  _317
REMARK  135  A    between atoms: _317  and  _318
REMARK  136  A    between atoms: _321  and  _323
REMARK  137  A    between atoms: _323  and  _324
REMARK  138  A    between atoms: _323  and  _326
REMARK  139  A    between atoms: _326  and  _327
REMARK  140  A    between atoms: _330  and  _332
REMARK  141  A    between atoms: _332  and  _333
REMARK  142  A    between atoms: _332  and  _335
REMARK  143  A    between atoms: _335  and  _336
REMARK  144  A    between atoms: _338  and  _340
REMARK  145  A    between atoms: _340  and  _341
REMARK  146  A    between atoms: _340  and  _343
REMARK  147  A    between atoms: _343  and  _344
REMARK  148  A    between atoms: _349  and  _351
REMARK  149  A    between atoms: _351  and  _352
REMARK  150  A    between atoms: _355  and  _357
REMARK  151  A    between atoms: _357  and  _358
REMARK  152  A    between atoms: _360  and  _362
REMARK  153  A    between atoms: _362  and  _363
REMARK  154  A    between atoms: _365  and  _367
REMARK  155  A    between atoms: _367  and  _368
REMARK  156  A    between atoms: _367  and  _370
REMARK  157  A    between atoms: _370  and  _371
REMARK  158  A    between atoms: _376  and  _377
REMARK  159  A    between atoms: _379  and  _381
REMARK  160  A    between atoms: _381  and  _382
REMARK  161  A    between atoms: _381  and  _384
REMARK  162  A    between atoms: _384  and  _385
REMARK  163  A    between atoms: _390  and  _391
REMARK  164  A    between atoms: _393  and  _395
REMARK  165  A    between atoms: _395  and  _396
REMARK  166  A    between atoms: _395  and  _398
REMARK  167  A    between atoms: _398  and  _399
REMARK  168  A    between atoms: _401  and  _403
REMARK  169  A    between atoms: _403  and  _404
REMARK  170  A    between atoms: _403  and  _406
REMARK  171  A    between atoms: _406  and  _407
REMARK  172  A    between atoms: _410  and  _412
REMARK  173  A    between atoms: _412  and  _413
REMARK  174  A    between atoms: _415  and  _417
REMARK  175  A    between atoms: _417  and  _418
REMARK  176  A    between atoms: _420  and  _422
REMARK  177  A    between atoms: _422  and  _423
REMARK  178  A    between atoms: _422  and  _425
REMARK  179  A    between atoms: _425  and  _426
REMARK  180  A    between atoms: _429  and  _431
REMARK  181  A    between atoms: _431  and  _432
REMARK  182  A    between atoms: _431  and  _434
REMARK  183  A    between atoms: _434  and  _435
REMARK  184  A    between atoms: _435  and  _436
REMARK  185  A    between atoms: _441  and  _443
REMARK  186  A    between atoms: _443  and  _444
REMARK  187  A    between atoms: _443  and  _446
REMARK  188  A    between atoms: _446  and  _447
REMARK  189  A    between atoms: _449  and  _451
REMARK  190  A    between atoms: _451  and  _452
REMARK  191  A    between atoms: _451  and  _454
REMARK  192  A    between atoms: _454  and  _455
REMARK  193  A    between atoms: _460  and  _462
REMARK  194  A    between atoms: _462  and  _463
REMARK  195  A    between atoms: _462  and  _465
REMARK  196  A    between atoms: _465  and  _466
REMARK  197  A    between atoms: _468  and  _470
REMARK  198  A    between atoms: _470  and  _471
REMARK  199  A    between atoms: _473  and  _475
REMARK  200  A    between atoms: _475  and  _476
REMARK  201  A    between atoms: _475  and  _478
REMARK  202  A    between atoms: _478  and  _479
REMARK  203  A    between atoms: _482  and  _484
REMARK  204  A    between atoms: _484  and  _485
REMARK  205  A    between atoms: _484  and  _487
REMARK  206  A    between atoms: _487  and  _488
REMARK  207  A    between atoms: _494  and  _496
REMARK  208  A    between atoms: _496  and  _497
REMARK  209  A    between atoms: _496  and  _499
REMARK  210  A    between atoms: _499  and  _500
REMARK  211  A    between atoms: _502  and  _504
REMARK  212  A    between atoms: _504  and  _505
REMARK  213  A    between atoms: _504  and  _507
REMARK  214  A    between atoms: _507  and  _508
REMARK  215  A    between atoms: _511  and  _513
REMARK  216  A    between atoms: _513  and  _514
REMARK  217  A    between atoms: _516  and  _518
REMARK  218  A    between atoms: _518  and  _519
REMARK  219  A    between atoms: _518  and  _521
REMARK  220  A    between atoms: _521  and  _522
REMARK  221  A    between atoms: _525  and  _527
REMARK  222  A    between atoms: _527  and  _528
REMARK  223  A    between atoms: _527  and  _530
REMARK  224  A    between atoms: _530  and  _531
REMARK  225  A    between atoms: _533  and  _535
REMARK  226  A    between atoms: _535  and  _536
REMARK  227  A    between atoms: _538  and  _540
REMARK  228  A    between atoms: _540  and  _541
REMARK  229  A    between atoms: _540  and  _543
REMARK  230  A    between atoms: _543  and  _544
REMARK  231  A    between atoms: _549  and  _550
REMARK  232  A    between atoms: _552  and  _554
REMARK  233  A    between atoms: _554  and  _555
REMARK  234  A    between atoms: _554  and  _557
REMARK  235  A    between atoms: _557  and  _558
REMARK  236  A    between atoms: _561  and  _563
REMARK  237  A    between atoms: _563  and  _564
REMARK  238  A    between atoms: _563  and  _566
REMARK  239  A    between atoms: _566  and  _567
REMARK  240  A    between atoms: _567  and  _568
REMARK  241  A    between atoms: _574  and  _575
REMARK  242  A    between atoms: _580  and  _582
REMARK  243  A    between atoms: _582  and  _583
REMARK  244  A    between atoms: _582  and  _585
REMARK  245  A    between atoms: _585  and  _586
REMARK  246  A    between atoms: _586  and  _587
REMARK                            x       y       z     vdW  Elec       q    Type
REMARK                         _______ _______ _______ _____ _____    ______ ____
ROOT
ATOM      1  O   HOH     1      16.549   6.809  24.455  0.00  0.00    +0.000 OA
ENDROOT
TORSDOF 0
REMARK  Name = ../refined-set-2016/2wec/2wec_pocket.pdb
REMARK  246 active torsions:
REMARK  status: ('A' for Active; 'I' for Inactive)
REMARK    1  A    between atoms: _1  and  _3
REMARK    2  A    between atoms: _3  and  _4
REMARK    3  A    between atoms: _3  and  _6
REMARK    4  A    between atoms: _6  and  _7
REMARK    5  A    between atoms: _10  and  _12
REMARK    6  A    between atoms: _12  and  _13
REMARK    7  A    between atoms: _12  and  _15
REMARK    8  A    between atoms: _15  and  _16
REMARK    9  A    between atoms: _19  and  _21
REMARK   10  A    between atoms: _21  and  _22
REMARK   11  A    between atoms: _21  and  _24
REMARK   12  A    between atoms: _24  and  _25
REMARK   13  A    between atoms: _25  and  _26
REMARK   14  A    between atoms: _29  and  _31
REMARK   15  A    between atoms: _31  and  _32
REMARK   16  A    between atoms: _31  and  _34
REMARK   17  A    between atoms: _34  and  _35
REMARK   18  A    between atoms: _35  and  _36
REMARK   19  A    between atoms: _39  and  _41
REMARK   20  A    between atoms: _41  and  _42
REMARK   21  A    between atoms: _41  and  _44
REMARK   22  A    between atoms: _44  and  _45
REMARK   23  A    between atoms: _50  and  _51
REMARK   24  A    between atoms: _53  and  _55
REMARK   25  A    between atoms: _55  and  _56
REMARK   26  A    between atoms: _55  and  _58
REMARK   27  A    between atoms: _58  and  _59
REMARK   28  A    between atoms: _64  and  _66
REMARK   29  A    between atoms: _66  and  _67
REMARK   30  A    between atoms: _66  and  _69
REMARK   31  A    between atoms: _69  and  _70
REMARK   32  A    between atoms: _73  and  _75
REMARK   33  A    between atoms: _75  and  _76
REMARK   34  A    between atoms: _75  and  _78
REMARK   35  A    between atoms: _78  and  _79
REMARK   36  A    between atoms: _82  and  _84
REMARK   37  A    between atoms: _84  and  _85
REMARK   38  A    between atoms: _87  and  _89
REMARK   39  A    between atoms: _89  and  _90
REMARK   40  A    between atoms: _89  and  _92
REMARK   41  A    between atoms: _92  and  _93
REMARK   42  A    between atoms: _95  and  _97
REMARK   43  A    between atoms: _97  and  _98
REMARK   44  A    between atoms: _97  and  _100
REMARK   45  A    between atoms: _100  and  _101
REMARK   46  A    between atoms: _104  and  _106
REMARK   47  A    between atoms: _106  and  _107
REMARK   48  A    between atoms: _106  and  _109
REMARK   49  A    between atoms: _109  and  _110
REMARK   50  A    between atoms: _112  and  _114
REMARK   51  A    between atoms: _114  and  _115
REMARK   52  A    between atoms: _114  and  _117
REMARK   53  A    between atoms: _117  and  _118
REMARK   54  A    between atoms: _123  and  _124
REMARK   55  A    between atoms: _126  and  _128
REMARK   56  A    between atoms: _128  and  _129
REMARK   57  A    between atoms: _131  and  _133
REMARK   58  A    between atoms: _133  and  _134
REMARK   59  A    between atoms: _133  and  _136
REMARK   60  A    between atoms: _136  and  _137
REMARK   61  A    between atoms: _140  and  _142
REMARK   62  A    between atoms: _142  and  _143
REMARK   63  A    between atoms: _145  and  _147
REMARK   64  A    between atoms: _147  and  _148
REMARK   65  A    between atoms: _147  and  _150
REMARK   66  A    between atoms: _150  and  _151
REMARK   67  A    between atoms: _153  and  _155
REMARK   68  A    between atoms: _155  and  _156
REMARK   69  A    between atoms: _155  and  _158
REMARK   70  A    between atoms: _158  and  _159
REMARK   71  A    between atoms: _159  and  _160
REMARK   72  A    between atoms: _165  and  _167
REMARK   73  A    between atoms: _167  and  _168
REMARK   74  A    between atoms: _167  and  _170
REMARK   75  A    between atoms: _170  and  _171
REMARK   76  A    between atoms: _177  and  _179
REMARK   77  A    between atoms: _179  and  _180
REMARK   78  A    between atoms: _179  and  _182
REMARK   79  A    between atoms: _182  and  _183
REMARK   80  A    between atoms: _186  and  _188
REMARK   81  A    between atoms: _188  and  _189
REMARK   82  A    between atoms: _188  and  _191
REMARK   83  A    between atoms: _191  and  _192
REMARK   84  A    between atoms: _197  and  _199
REMARK   85  A    between atoms: _199  and  _200
REMARK   86  A    between atoms: _199  and  _202
REMARK   87  A    between atoms: _202  and  _203
REMARK   88  A    between atoms: _208  and  _210
REMARK   89  A    between atoms: _210  and  _211
REMARK   90  A    between atoms: _210  and  _213
REMARK   91  A    between atoms: _213  and  _214
REMARK   92  A    between atoms: _217  and  _219
REMARK   93  A    between atoms: _219  and  _220
REMARK   94  A    between atoms: _223  and  _225
REMARK   95  A    between atoms: _225  and  _226
REMARK   96  A    between atoms: _225  and  _228
REMARK   97  A    between atoms: _228  and  _229
REMARK   98  A    between atoms: _232  and  _234
REMARK   99  A    between atoms: _234  and  _235
REMARK  100  A    between atoms: _234  and  _237
REMARK  101  A    between atoms: _237  and  _238
REMARK  102  A    between atoms: _244  and  _246
REMARK  103  A    between atoms: _246  and  _247
REMARK  104  A    between atoms: _246  and  _249
REMARK  105  A    between atoms: _249  and  _250
REMARK  106  A    between atoms: _253  and  _255
REMARK  107  A    between atoms: _255  and  _256
REMARK  108  A    between atoms: _255  and  _258
REMARK  109  A    between atoms: _258  and  _259
REMARK  110  A    between atoms: _262  and  _264
REMARK  111  A    between atoms: _264  and  _265
REMARK  112  A    between atoms: _264  and  _267
REMARK  113  A    between atoms: _267  and  _268
REMARK  114  A    between atoms: _271  and  _273
REMARK  115  A    between atoms: _273  and  _274
REMARK  116  A    between atoms: _276  and  _278
REMARK  117  A    between atoms: _278  and  _279
REMARK  118  A    between atoms: _278  and  _281
REMARK  119  A    between atoms: _281  and  _282
REMARK  120  A    between atoms: _285  and  _287
REMARK  121  A    between atoms: _287  and  _288
REMARK  122  A    between atoms: _287  and  _290
REMARK  123  A    between atoms: _290  and  _291
REMARK  124  A    between atoms: _294  and  _296
REMARK  125  A    between atoms: _296  and  _297
REMARK  126  A    between atoms: _296  and  _299
REMARK  127  A    between atoms: _299  and  _300
REMARK  128  A    between atoms: _303  and  _305
REMARK  129  A    between atoms: _305  and  _306
REMARK  130  A    between atoms: _305  and  _308
REMARK  131  A    between atoms: _308  and  _309
REMARK  132  A    between atoms: _312  and  _314
REMARK  133  A    between atoms: _314  and  _315
REMARK  134  A    between atoms: _314  and  _317
REMARK  135  A    between atoms: _317  and  _318
REMARK  136  A    between atoms: _321  and  _323
REMARK  137  A    between atoms: _323  and  _324
REMARK  138  A    between atoms: _323  and  _326
REMARK  139  A    between atoms: _326  and  _327
REMARK  140  A    between atoms: _330  and  _332
REMARK  141  A    between atoms: _332  and  _333
REMARK  142  A    between atoms: _332  and  _335
REMARK  143  A    between atoms: _335  and  _336
REMARK  144  A    between atoms: _338  and  _340
REMARK  145  A    between atoms: _340  and  _341
REMARK  146  A    between atoms: _340  and  _343
REMARK  147  A    between atoms: _343  and  _344
REMARK  148  A    between atoms: _349  and  _351
REMARK  149  A    between atoms: _351  and  _352
REMARK  150  A    between atoms: _355  and  _357
REMARK  151  A    between atoms: _357  and  _358
REMARK  152  A    between atoms: _360  and  _362
REMARK  153  A    between atoms: _362  and  _363
REMARK  154  A    between atoms: _365  and  _367
REMARK  155  A    between atoms: _367  and  _368
REMARK  156  A    between atoms: _367  and  _370
REMARK  157  A    between atoms: _370  and  _371
REMARK  158  A    between atoms: _376  and  _377
REMARK  159  A    between atoms: _379  and  _381
REMARK  160  A    between atoms: _381  and  _382
REMARK  161  A    between atoms: _381  and  _384
REMARK  162  A    between atoms: _384  and  _385
REMARK  163  A    between atoms: _390  and  _391
REMARK  164  A    between atoms: _393  and  _395
REMARK  165  A    between atoms: _395  and  _396
REMARK  166  A    between atoms: _395  and  _398
REMARK  167  A    between atoms: _398  and  _399
REMARK  168  A    between atoms: _401  and  _403
REMARK  169  A    between atoms: _403  and  _404
REMARK  170  A    between atoms: _403  and  _406
REMARK  171  A    between atoms: _406  and  _407
REMARK  172  A    between atoms: _410  and  _412
REMARK  173  A    between atoms: _412  and  _413
REMARK  174  A    between atoms: _415  and  _417
REMARK  175  A    between atoms: _417  and  _418
REMARK  176  A    between atoms: _420  and  _422
REMARK  177  A    between atoms: _422  and  _423
REMARK  178  A    between atoms: _422  and  _425
REMARK  179  A    between atoms: _425  and  _426
REMARK  180  A    between atoms: _429  and  _431
REMARK  181  A    between atoms: _431  and  _432
REMARK  182  A    between atoms: _431  and  _434
REMARK  183  A    between atoms: _434  and  _435
REMARK  184  A    between atoms: _435  and  _436
REMARK  185  A    between atoms: _441  and  _443
REMARK  186  A    between atoms: _443  and  _444
REMARK  187  A    between atoms: _443  and  _446
REMARK  188  A    between atoms: _446  and  _447
REMARK  189  A    between atoms: _449  and  _451
REMARK  190  A    between atoms: _451  and  _452
REMARK  191  A    between atoms: _451  and  _454
REMARK  192  A    between atoms: _454  and  _455
REMARK  193  A    between atoms: _460  and  _462
REMARK  194  A    between atoms: _462  and  _463
REMARK  195  A    between atoms: _462  and  _465
REMARK  196  A    between atoms: _465  and  _466
REMARK  197  A    between atoms: _468  and  _470
REMARK  198  A    between atoms: _470  and  _471
REMARK  199  A    between atoms: _473  and  _475
REMARK  200  A    between atoms: _475  and  _476
REMARK  201  A    between atoms: _475  and  _478
REMARK  202  A    between atoms: _478  and  _479
REMARK  203  A    between atoms: _482  and  _484
REMARK  204  A    between atoms: _484  and  _485
REMARK  205  A    between atoms: _484  and  _487
REMARK  206  A    between atoms: _487  and  _488
REMARK  207  A    between atoms: _494  and  _496
REMARK  208  A    between atoms: _496  and  _497
REMARK  209  A    between atoms: _496  and  _499
REMARK  210  A    between atoms: _499  and  _500
REMARK  211  A    between atoms: _502  and  _504
REMARK  212  A    between atoms: _504  and  _505
REMARK  213  A    between atoms: _504  and  _507
REMARK  214  A    between atoms: _507  and  _508
REMARK  215  A    between atoms: _511  and  _513
REMARK  216  A    between atoms: _513  and  _514
REMARK  217  A    between atoms: _516  and  _518
REMARK  218  A    between atoms: _518  and  _519
REMARK  219  A    between atoms: _518  and  _521
REMARK  220  A    between atoms: _521  and  _522
REMARK  221  A    between atoms: _525  and  _527
REMARK  222  A    between atoms: _527  and  _528
REMARK  223  A    between atoms: _527  and  _530
REMARK  224  A    between atoms: _530  and  _531
REMARK  225  A    between atoms: _533  and  _535
REMARK  226  A    between atoms: _535  and  _536
REMARK  227  A    between atoms: _538  and  _540
REMARK  228  A    between atoms: _540  and  _541
REMARK  229  A    between atoms: _540  and  _543
REMARK  230  A    between atoms: _543  and  _544
REMARK  231  A    between atoms: _549  and  _550
REMARK  232  A    between atoms: _552  and  _554
REMARK  233  A    between atoms: _554  and  _555
REMARK  234  A    between atoms: _554  and  _557
REMARK  235  A    between atoms: _557  and  _558
REMARK  236  A    between atoms: _561  and  _563
REMARK  237  A    between atoms: _563  and  _564
REMARK  238  A    between atoms: _563  and  _566
REMARK  239  A    between atoms: _566  and  _567
REMARK  240  A    between atoms: _567  and  _568
REMARK  241  A    between atoms: _574  and  _575
REMARK  242  A    between atoms: _580  and  _582
REMARK  243  A    between atoms: _582  and  _583
REMARK  244  A    between atoms: _582  and  _585
REMARK  245  A    between atoms: _585  and  _586
REMARK  246  A    between atoms: _586  and  _587
REMARK                            x       y       z     vdW  Elec       q    Type
REMARK                         _______ _______ _______ _____ _____    ______ ____
ROOT
ATOM      1  O   HOH     1      24.407   6.559  20.540  0.00  0.00    +0.000 OA
ENDROOT
TORSDOF 0
REMARK  Name = ../refined-set-2016/2wec/2wec_pocket.pdb
REMARK  246 active torsions:
REMARK  status: ('A' for Active; 'I' for Inactive)
REMARK    1  A    between atoms: _1  and  _3
REMARK    2  A    between atoms: _3  and  _4
REMARK    3  A    between atoms: _3  and  _6
REMARK    4  A    between atoms: _6  and  _7
REMARK    5  A    between atoms: _10  and  _12
REMARK    6  A    between atoms: _12  and  _13
REMARK    7  A    between atoms: _12  and  _15
REMARK    8  A    between atoms: _15  and  _16
REMARK    9  A    between atoms: _19  and  _21
REMARK   10  A    between atoms: _21  and  _22
REMARK   11  A    between atoms: _21  and  _24
REMARK   12  A    between atoms: _24  and  _25
REMARK   13  A    between atoms: _25  and  _26
REMARK   14  A    between atoms: _29  and  _31
REMARK   15  A    between atoms: _31  and  _32
REMARK   16  A    between atoms: _31  and  _34
REMARK   17  A    between atoms: _34  and  _35
REMARK   18  A    between atoms: _35  and  _36
REMARK   19  A    between atoms: _39  and  _41
REMARK   20  A    between atoms: _41  and  _42
REMARK   21  A    between atoms: _41  and  _44
REMARK   22  A    between atoms: _44  and  _45
REMARK   23  A    between atoms: _50  and  _51
REMARK   24  A    between atoms: _53  and  _55
REMARK   25  A    between atoms: _55  and  _56
REMARK   26  A    between atoms: _55  and  _58
REMARK   27  A    between atoms: _58  and  _59
REMARK   28  A    between atoms: _64  and  _66
REMARK   29  A    between atoms: _66  and  _67
REMARK   30  A    between atoms: _66  and  _69
REMARK   31  A    between atoms: _69  and  _70
REMARK   32  A    between atoms: _73  and  _75
REMARK   33  A    between atoms: _75  and  _76
REMARK   34  A    between atoms: _75  and  _78
REMARK   35  A    between atoms: _78  and  _79
REMARK   36  A    between atoms: _82  and  _84
REMARK   37  A    between atoms: _84  and  _85
REMARK   38  A    between atoms: _87  and  _89
REMARK   39  A    between atoms: _89  and  _90
REMARK   40  A    between atoms: _89  and  _92
REMARK   41  A    between atoms: _92  and  _93
REMARK   42  A    between atoms: _95  and  _97
REMARK   43  A    between atoms: _97  and  _98
REMARK   44  A    between atoms: _97  and  _100
REMARK   45  A    between atoms: _100  and  _101
REMARK   46  A    between atoms: _104  and  _106
REMARK   47  A    between atoms: _106  and  _107
REMARK   48  A    between atoms: _106  and  _109
REMARK   49  A    between atoms: _109  and  _110
REMARK   50  A    between atoms: _112  and  _114
REMARK   51  A    between atoms: _114  and  _115
REMARK   52  A    between atoms: _114  and  _117
REMARK   53  A    between atoms: _117  and  _118
REMARK   54  A    between atoms: _123  and  _124
REMARK   55  A    between atoms: _126  and  _128
REMARK   56  A    between atoms: _128  and  _129
REMARK   57  A    between atoms: _131  and  _133
REMARK   58  A    between atoms: _133  and  _134
REMARK   59  A    between atoms: _133  and  _136
REMARK   60  A    between atoms: _136  and  _137
REMARK   61  A    between atoms: _140  and  _142
REMARK   62  A    between atoms: _142  and  _143
REMARK   63  A    between atoms: _145  and  _147
REMARK   64  A    between atoms: _147  and  _148
REMARK   65  A    between atoms: _147  and  _150
REMARK   66  A    between atoms: _150  and  _151
REMARK   67  A    between atoms: _153  and  _155
REMARK   68  A    between atoms: _155  and  _156
REMARK   69  A    between atoms: _155  and  _158
REMARK   70  A    between atoms: _158  and  _159
REMARK   71  A    between atoms: _159  and  _160
REMARK   72  A    between atoms: _165  and  _167
REMARK   73  A    between atoms: _167  and  _168
REMARK   74  A    between atoms: _167  and  _170
REMARK   75  A    between atoms: _170  and  _171
REMARK   76  A    between atoms: _177  and  _179
REMARK   77  A    between atoms: _179  and  _180
REMARK   78  A    between atoms: _179  and  _182
REMARK   79  A    between atoms: _182  and  _183
REMARK   80  A    between atoms: _186  and  _188
REMARK   81  A    between atoms: _188  and  _189
REMARK   82  A    between atoms: _188  and  _191
REMARK   83  A    between atoms: _191  and  _192
REMARK   84  A    between atoms: _197  and  _199
REMARK   85  A    between atoms: _199  and  _200
REMARK   86  A    between atoms: _199  and  _202
REMARK   87  A    between atoms: _202  and  _203
REMARK   88  A    between atoms: _208  and  _210
REMARK   89  A    between atoms: _210  and  _211
REMARK   90  A    between atoms: _210  and  _213
REMARK   91  A    between atoms: _213  and  _214
REMARK   92  A    between atoms: _217  and  _219
REMARK   93  A    between atoms: _219  and  _220
REMARK   94  A    between atoms: _223  and  _225
REMARK   95  A    between atoms: _225  and  _226
REMARK   96  A    between atoms: _225  and  _228
REMARK   97  A    between atoms: _228  and  _229
REMARK   98  A    between atoms: _232  and  _234
REMARK   99  A    between atoms: _234  and  _235
REMARK  100  A    between atoms: _234  and  _237
REMARK  101  A    between atoms: _237  and  _238
REMARK  102  A    between atoms: _244  and  _246
REMARK  103  A    between atoms: _246  and  _247
REMARK  104  A    between atoms: _246  and  _249
REMARK  105  A    between atoms: _249  and  _250
REMARK  106  A    between atoms: _253  and  _255
REMARK  107  A    between atoms: _255  and  _256
REMARK  108  A    between atoms: _255  and  _258
REMARK  109  A    between atoms: _258  and  _259
REMARK  110  A    between atoms: _262  and  _264
REMARK  111  A    between atoms: _264  and  _265
REMARK  112  A    between atoms: _264  and  _267
REMARK  113  A    between atoms: _267  and  _268
REMARK  114  A    between atoms: _271  and  _273
REMARK  115  A    between atoms: _273  and  _274
REMARK  116  A    between atoms: _276  and  _278
REMARK  117  A    between atoms: _278  and  _279
REMARK  118  A    between atoms: _278  and  _281
REMARK  119  A    between atoms: _281  and  _282
REMARK  120  A    between atoms: _285  and  _287
REMARK  121  A    between atoms: _287  and  _288
REMARK  122  A    between atoms: _287  and  _290
REMARK  123  A    between atoms: _290  and  _291
REMARK  124  A    between atoms: _294  and  _296
REMARK  125  A    between atoms: _296  and  _297
REMARK  126  A    between atoms: _296  and  _299
REMARK  127  A    between atoms: _299  and  _300
REMARK  128  A    between atoms: _303  and  _305
REMARK  129  A    between atoms: _305  and  _306
REMARK  130  A    between atoms: _305  and  _308
REMARK  131  A    between atoms: _308  and  _309
REMARK  132  A    between atoms: _312  and  _314
REMARK  133  A    between atoms: _314  and  _315
REMARK  134  A    between atoms: _314  and  _317
REMARK  135  A    between atoms: _317  and  _318
REMARK  136  A    between atoms: _321  and  _323
REMARK  137  A    between atoms: _323  and  _324
REMARK  138  A    between atoms: _323  and  _326
REMARK  139  A    between atoms: _326  and  _327
REMARK  140  A    between atoms: _330  and  _332
REMARK  141  A    between atoms: _332  and  _333
REMARK  142  A    between atoms: _332  and  _335
REMARK  143  A    between atoms: _335  and  _336
REMARK  144  A    between atoms: _338  and  _340
REMARK  145  A    between atoms: _340  and  _341
REMARK  146  A    between atoms: _340  and  _343
REMARK  147  A    between atoms: _343  and  _344
REMARK  148  A    between atoms: _349  and  _351
REMARK  149  A    between atoms: _351  and  _352
REMARK  150  A    between atoms: _355  and  _357
REMARK  151  A    between atoms: _357  and  _358
REMARK  152  A    between atoms: _360  and  _362
REMARK  153  A    between atoms: _362  and  _363
REMARK  154  A    between atoms: _365  and  _367
REMARK  155  A    between atoms: _367  and  _368
REMARK  156  A    between atoms: _367  and  _370
REMARK  157  A    between atoms: _370  and  _371
REMARK  158  A    between atoms: _376  and  _377
REMARK  159  A    between atoms: _379  and  _381
REMARK  160  A    between atoms: _381  and  _382
REMARK  161  A    between atoms: _381  and  _384
REMARK  162  A    between atoms: _384  and  _385
REMARK  163  A    between atoms: _390  and  _391
REMARK  164  A    between atoms: _393  and  _395
REMARK  165  A    between atoms: _395  and  _396
REMARK  166  A    between atoms: _395  and  _398
REMARK  167  A    between atoms: _398  and  _399
REMARK  168  A    between atoms: _401  and  _403
REMARK  169  A    between atoms: _403  and  _404
REMARK  170  A    between atoms: _403  and  _406
REMARK  171  A    between atoms: _406  and  _407
REMARK  172  A    between atoms: _410  and  _412
REMARK  173  A    between atoms: _412  and  _413
REMARK  174  A    between atoms: _415  and  _417
REMARK  175  A    between atoms: _417  and  _418
REMARK  176  A    between atoms: _420  and  _422
REMARK  177  A    between atoms: _422  and  _423
REMARK  178  A    between atoms: _422  and  _425
REMARK  179  A    between atoms: _425  and  _426
REMARK  180  A    between atoms: _429  and  _431
REMARK  181  A    between atoms: _431  and  _432
REMARK  182  A    between atoms: _431  and  _434
REMARK  183  A    between atoms: _434  and  _435
REMARK  184  A    between atoms: _435  and  _436
REMARK  185  A    between atoms: _441  and  _443
REMARK  186  A    between atoms: _443  and  _444
REMARK  187  A    between atoms: _443  and  _446
REMARK  188  A    between atoms: _446  and  _447
REMARK  189  A    between atoms: _449  and  _451
REMARK  190  A    between atoms: _451  and  _452
REMARK  191  A    between atoms: _451  and  _454
REMARK  192  A    between atoms: _454  and  _455
REMARK  193  A    between atoms: _460  and  _462
REMARK  194  A    between atoms: _462  and  _463
REMARK  195  A    between atoms: _462  and  _465
REMARK  196  A    between atoms: _465  and  _466
REMARK  197  A    between atoms: _468  and  _470
REMARK  198  A    between atoms: _470  and  _471
REMARK  199  A    between atoms: _473  and  _475
REMARK  200  A    between atoms: _475  and  _476
REMARK  201  A    between atoms: _475  and  _478
REMARK  202  A    between atoms: _478  and  _479
REMARK  203  A    between atoms: _482  and  _484
REMARK  204  A    between atoms: _484  and  _485
REMARK  205  A    between atoms: _484  and  _487
REMARK  206  A    between atoms: _487  and  _488
REMARK  207  A    between atoms: _494  and  _496
REMARK  208  A    between atoms: _496  and  _497
REMARK  209  A    between atoms: _496  and  _499
REMARK  210  A    between atoms: _499  and  _500
REMARK  211  A    between atoms: _502  and  _504
REMARK  212  A    between atoms: _504  and  _505
REMARK  213  A    between atoms: _504  and  _507
REMARK  214  A    between atoms: _507  and  _508
REMARK  215  A    between atoms: _511  and  _513
REMARK  216  A    between atoms: _513  and  _514
REMARK  217  A    between atoms: _516  and  _518
REMARK  218  A    between atoms: _518  and  _519
REMARK  219  A    between atoms: _518  and  _521
REMARK  220  A    between atoms: _521  and  _522
REMARK  221  A    between atoms: _525  and  _527
REMARK  222  A    between atoms: _527  and  _528
REMARK  223  A    between atoms: _527  and  _530
REMARK  224  A    between atoms: _530  and  _531
REMARK  225  A    between atoms: _533  and  _535
REMARK  226  A    between atoms: _535  and  _536
REMARK  227  A    between atoms: _538  and  _540
REMARK  228  A    between atoms: _540  and  _541
REMARK  229  A    between atoms: _540  and  _543
REMARK  230  A    between atoms: _543  and  _544
REMARK  231  A    between atoms: _549  and  _550
REMARK  232  A    between atoms: _552  and  _554
REMARK  233  A    between atoms: _554  and  _555
REMARK  234  A    between atoms: _554  and  _557
REMARK  235  A    between atoms: _557  and  _558
REMARK  236  A    between atoms: _561  and  _563
REMARK  237  A    between atoms: _563  and  _564
REMARK  238  A    between atoms: _563  and  _566
REMARK  239  A    between atoms: _566  and  _567
REMARK  240  A    between atoms: _567  and  _568
REMARK  241  A    between atoms: _574  and  _575
REMARK  242  A    between atoms: _580  and  _582
REMARK  243  A    between atoms: _582  and  _583
REMARK  244  A    between atoms: _582  and  _585
REMARK  245  A    between atoms: _585  and  _586
REMARK  246  A    between atoms: _586  and  _587
REMARK                            x       y       z     vdW  Elec       q    Type
REMARK                         _______ _______ _______ _____ _____    ______ ____
ROOT
ATOM      1  O   HOH     1      22.904   2.608  20.071  0.00  0.00    +0.000 OA
ENDROOT
TORSDOF 0
REMARK  Name = ../refined-set-2016/2wec/2wec_pocket.pdb
REMARK  246 active torsions:
REMARK  status: ('A' for Active; 'I' for Inactive)
REMARK    1  A    between atoms: _1  and  _3
REMARK    2  A    between atoms: _3  and  _4
REMARK    3  A    between atoms: _3  and  _6
REMARK    4  A    between atoms: _6  and  _7
REMARK    5  A    between atoms: _10  and  _12
REMARK    6  A    between atoms: _12  and  _13
REMARK    7  A    between atoms: _12  and  _15
REMARK    8  A    between atoms: _15  and  _16
REMARK    9  A    between atoms: _19  and  _21
REMARK   10  A    between atoms: _21  and  _22
REMARK   11  A    between atoms: _21  and  _24
REMARK   12  A    between atoms: _24  and  _25
REMARK   13  A    between atoms: _25  and  _26
REMARK   14  A    between atoms: _29  and  _31
REMARK   15  A    between atoms: _31  and  _32
REMARK   16  A    between atoms: _31  and  _34
REMARK   17  A    between atoms: _34  and  _35
REMARK   18  A    between atoms: _35  and  _36
REMARK   19  A    between atoms: _39  and  _41
REMARK   20  A    between atoms: _41  and  _42
REMARK   21  A    between atoms: _41  and  _44
REMARK   22  A    between atoms: _44  and  _45
REMARK   23  A    between atoms: _50  and  _51
REMARK   24  A    between atoms: _53  and  _55
REMARK   25  A    between atoms: _55  and  _56
REMARK   26  A    between atoms: _55  and  _58
REMARK   27  A    between atoms: _58  and  _59
REMARK   28  A    between atoms: _64  and  _66
REMARK   29  A    between atoms: _66  and  _67
REMARK   30  A    between atoms: _66  and  _69
REMARK   31  A    between atoms: _69  and  _70
REMARK   32  A    between atoms: _73  and  _75
REMARK   33  A    between atoms: _75  and  _76
REMARK   34  A    between atoms: _75  and  _78
REMARK   35  A    between atoms: _78  and  _79
REMARK   36  A    between atoms: _82  and  _84
REMARK   37  A    between atoms: _84  and  _85
REMARK   38  A    between atoms: _87  and  _89
REMARK   39  A    between atoms: _89  and  _90
REMARK   40  A    between atoms: _89  and  _92
REMARK   41  A    between atoms: _92  and  _93
REMARK   42  A    between atoms: _95  and  _97
REMARK   43  A    between atoms: _97  and  _98
REMARK   44  A    between atoms: _97  and  _100
REMARK   45  A    between atoms: _100  and  _101
REMARK   46  A    between atoms: _104  and  _106
REMARK   47  A    between atoms: _106  and  _107
REMARK   48  A    between atoms: _106  and  _109
REMARK   49  A    between atoms: _109  and  _110
REMARK   50  A    between atoms: _112  and  _114
REMARK   51  A    between atoms: _114  and  _115
REMARK   52  A    between atoms: _114  and  _117
REMARK   53  A    between atoms: _117  and  _118
REMARK   54  A    between atoms: _123  and  _124
REMARK   55  A    between atoms: _126  and  _128
REMARK   56  A    between atoms: _128  and  _129
REMARK   57  A    between atoms: _131  and  _133
REMARK   58  A    between atoms: _133  and  _134
REMARK   59  A    between atoms: _133  and  _136
REMARK   60  A    between atoms: _136  and  _137
REMARK   61  A    between atoms: _140  and  _142
REMARK   62  A    between atoms: _142  and  _143
REMARK   63  A    between atoms: _145  and  _147
REMARK   64  A    between atoms: _147  and  _148
REMARK   65  A    between atoms: _147  and  _150
REMARK   66  A    between atoms: _150  and  _151
REMARK   67  A    between atoms: _153  and  _155
REMARK   68  A    between atoms: _155  and  _156
REMARK   69  A    between atoms: _155  and  _158
REMARK   70  A    between atoms: _158  and  _159
REMARK   71  A    between atoms: _159  and  _160
REMARK   72  A    between atoms: _165  and  _167
REMARK   73  A    between atoms: _167  and  _168
REMARK   74  A    between atoms: _167  and  _170
REMARK   75  A    between atoms: _170  and  _171
REMARK   76  A    between atoms: _177  and  _179
REMARK   77  A    between atoms: _179  and  _180
REMARK   78  A    between atoms: _179  and  _182
REMARK   79  A    between atoms: _182  and  _183
REMARK   80  A    between atoms: _186  and  _188
REMARK   81  A    between atoms: _188  and  _189
REMARK   82  A    between atoms: _188  and  _191
REMARK   83  A    between atoms: _191  and  _192
REMARK   84  A    between atoms: _197  and  _199
REMARK   85  A    between atoms: _199  and  _200
REMARK   86  A    between atoms: _199  and  _202
REMARK   87  A    between atoms: _202  and  _203
REMARK   88  A    between atoms: _208  and  _210
REMARK   89  A    between atoms: _210  and  _211
REMARK   90  A    between atoms: _210  and  _213
REMARK   91  A    between atoms: _213  and  _214
REMARK   92  A    between atoms: _217  and  _219
REMARK   93  A    between atoms: _219  and  _220
REMARK   94  A    between atoms: _223  and  _225
REMARK   95  A    between atoms: _225  and  _226
REMARK   96  A    between atoms: _225  and  _228
REMARK   97  A    between atoms: _228  and  _229
REMARK   98  A    between atoms: _232  and  _234
REMARK   99  A    between atoms: _234  and  _235
REMARK  100  A    between atoms: _234  and  _237
REMARK  101  A    between atoms: _237  and  _238
REMARK  102  A    between atoms: _244  and  _246
REMARK  103  A    between atoms: _246  and  _247
REMARK  104  A    between atoms: _246  and  _249
REMARK  105  A    between atoms: _249  and  _250
REMARK  106  A    between atoms: _253  and  _255
REMARK  107  A    between atoms: _255  and  _256
REMARK  108  A    between atoms: _255  and  _258
REMARK  109  A    between atoms: _258  and  _259
REMARK  110  A    between atoms: _262  and  _264
REMARK  111  A    between atoms: _264  and  _265
REMARK  112  A    between atoms: _264  and  _267
REMARK  113  A    between atoms: _267  and  _268
REMARK  114  A    between atoms: _271  and  _273
REMARK  115  A    between atoms: _273  and  _274
REMARK  116  A    between atoms: _276  and  _278
REMARK  117  A    between atoms: _278  and  _279
REMARK  118  A    between atoms: _278  and  _281
REMARK  119  A    between atoms: _281  and  _282
REMARK  120  A    between atoms: _285  and  _287
REMARK  121  A    between atoms: _287  and  _288
REMARK  122  A    between atoms: _287  and  _290
REMARK  123  A    between atoms: _290  and  _291
REMARK  124  A    between atoms: _294  and  _296
REMARK  125  A    between atoms: _296  and  _297
REMARK  126  A    between atoms: _296  and  _299
REMARK  127  A    between atoms: _299  and  _300
REMARK  128  A    between atoms: _303  and  _305
REMARK  129  A    between atoms: _305  and  _306
REMARK  130  A    between atoms: _305  and  _308
REMARK  131  A    between atoms: _308  and  _309
REMARK  132  A    between atoms: _312  and  _314
REMARK  133  A    between atoms: _314  and  _315
REMARK  134  A    between atoms: _314  and  _317
REMARK  135  A    between atoms: _317  and  _318
REMARK  136  A    between atoms: _321  and  _323
REMARK  137  A    between atoms: _323  and  _324
REMARK  138  A    between atoms: _323  and  _326
REMARK  139  A    between atoms: _326  and  _327
REMARK  140  A    between atoms: _330  and  _332
REMARK  141  A    between atoms: _332  and  _333
REMARK  142  A    between atoms: _332  and  _335
REMARK  143  A    between atoms: _335  and  _336
REMARK  144  A    between atoms: _338  and  _340
REMARK  145  A    between atoms: _340  and  _341
REMARK  146  A    between atoms: _340  and  _343
REMARK  147  A    between atoms: _343  and  _344
REMARK  148  A    between atoms: _349  and  _351
REMARK  149  A    between atoms: _351  and  _352
REMARK  150  A    between atoms: _355  and  _357
REMARK  151  A    between atoms: _357  and  _358
REMARK  152  A    between atoms: _360  and  _362
REMARK  153  A    between atoms: _362  and  _363
REMARK  154  A    between atoms: _365  and  _367
REMARK  155  A    between atoms: _367  and  _368
REMARK  156  A    between atoms: _367  and  _370
REMARK  157  A    between atoms: _370  and  _371
REMARK  158  A    between atoms: _376  and  _377
REMARK  159  A    between atoms: _379  and  _381
REMARK  160  A    between atoms: _381  and  _382
REMARK  161  A    between atoms: _381  and  _384
REMARK  162  A    between atoms: _384  and  _385
REMARK  163  A    between atoms: _390  and  _391
REMARK  164  A    between atoms: _393  and  _395
REMARK  165  A    between atoms: _395  and  _396
REMARK  166  A    between atoms: _395  and  _398
REMARK  167  A    between atoms: _398  and  _399
REMARK  168  A    between atoms: _401  and  _403
REMARK  169  A    between atoms: _403  and  _404
REMARK  170  A    between atoms: _403  and  _406
REMARK  171  A    between atoms: _406  and  _407
REMARK  172  A    between atoms: _410  and  _412
REMARK  173  A    between atoms: _412  and  _413
REMARK  174  A    between atoms: _415  and  _417
REMARK  175  A    between atoms: _417  and  _418
REMARK  176  A    between atoms: _420  and  _422
REMARK  177  A    between atoms: _422  and  _423
REMARK  178  A    between atoms: _422  and  _425
REMARK  179  A    between atoms: _425  and  _426
REMARK  180  A    between atoms: _429  and  _431
REMARK  181  A    between atoms: _431  and  _432
REMARK  182  A    between atoms: _431  and  _434
REMARK  183  A    between atoms: _434  and  _435
REMARK  184  A    between atoms: _435  and  _436
REMARK  185  A    between atoms: _441  and  _443
REMARK  186  A    between atoms: _443  and  _444
REMARK  187  A    between atoms: _443  and  _446
REMARK  188  A    between atoms: _446  and  _447
REMARK  189  A    between atoms: _449  and  _451
REMARK  190  A    between atoms: _451  and  _452
REMARK  191  A    between atoms: _451  and  _454
REMARK  192  A    between atoms: _454  and  _455
REMARK  193  A    between atoms: _460  and  _462
REMARK  194  A    between atoms: _462  and  _463
REMARK  195  A    between atoms: _462  and  _465
REMARK  196  A    between atoms: _465  and  _466
REMARK  197  A    between atoms: _468  and  _470
REMARK  198  A    between atoms: _470  and  _471
REMARK  199  A    between atoms: _473  and  _475
REMARK  200  A    between atoms: _475  and  _476
REMARK  201  A    between atoms: _475  and  _478
REMARK  202  A    between atoms: _478  and  _479
REMARK  203  A    between atoms: _482  and  _484
REMARK  204  A    between atoms: _484  and  _485
REMARK  205  A    between atoms: _484  and  _487
REMARK  206  A    between atoms: _487  and  _488
REMARK  207  A    between atoms: _494  and  _496
REMARK  208  A    between atoms: _496  and  _497
REMARK  209  A    between atoms: _496  and  _499
REMARK  210  A    between atoms: _499  and  _500
REMARK  211  A    between atoms: _502  and  _504
REMARK  212  A    between atoms: _504  and  _505
REMARK  213  A    between atoms: _504  and  _507
REMARK  214  A    between atoms: _507  and  _508
REMARK  215  A    between atoms: _511  and  _513
REMARK  216  A    between atoms: _513  and  _514
REMARK  217  A    between atoms: _516  and  _518
REMARK  218  A    between atoms: _518  and  _519
REMARK  219  A    between atoms: _518  and  _521
REMARK  220  A    between atoms: _521  and  _522
REMARK  221  A    between atoms: _525  and  _527
REMARK  222  A    between atoms: _527  and  _528
REMARK  223  A    between atoms: _527  and  _530
REMARK  224  A    between atoms: _530  and  _531
REMARK  225  A    between atoms: _533  and  _535
REMARK  226  A    between atoms: _535  and  _536
REMARK  227  A    between atoms: _538  and  _540
REMARK  228  A    between atoms: _540  and  _541
REMARK  229  A    between atoms: _540  and  _543
REMARK  230  A    between atoms: _543  and  _544
REMARK  231  A    between atoms: _549  and  _550
REMARK  232  A    between atoms: _552  and  _554
REMARK  233  A    between atoms: _554  and  _555
REMARK  234  A    between atoms: _554  and  _557
REMARK  235  A    between atoms: _557  and  _558
REMARK  236  A    between atoms: _561  and  _563
REMARK  237  A    between atoms: _563  and  _564
REMARK  238  A    between atoms: _563  and  _566
REMARK  239  A    between atoms: _566  and  _567
REMARK  240  A    between atoms: _567  and  _568
REMARK  241  A    between atoms: _574  and  _575
REMARK  242  A    between atoms: _580  and  _582
REMARK  243  A    between atoms: _582  and  _583
REMARK  244  A    between atoms: _582  and  _585
REMARK  245  A    between atoms: _585  and  _586
REMARK  246  A    between atoms: _586  and  _587
REMARK                            x       y       z     vdW  Elec       q    Type
REMARK                         _______ _______ _______ _____ _____    ______ ____
ROOT
ATOM      1  O   HOH     1      19.653   1.622  20.112  0.00  0.00    +0.000 OA
ENDROOT
TORSDOF 0
REMARK  Name = ../refined-set-2016/2wec/2wec_pocket.pdb
REMARK  246 active torsions:
REMARK  status: ('A' for Active; 'I' for Inactive)
REMARK    1  A    between atoms: _1  and  _3
REMARK    2  A    between atoms: _3  and  _4
REMARK    3  A    between atoms: _3  and  _6
REMARK    4  A    between atoms: _6  and  _7
REMARK    5  A    between atoms: _10  and  _12
REMARK    6  A    between atoms: _12  and  _13
REMARK    7  A    between atoms: _12  and  _15
REMARK    8  A    between atoms: _15  and  _16
REMARK    9  A    between atoms: _19  and  _21
REMARK   10  A    between atoms: _21  and  _22
REMARK   11  A    between atoms: _21  and  _24
REMARK   12  A    between atoms: _24  and  _25
REMARK   13  A    between atoms: _25  and  _26
REMARK   14  A    between atoms: _29  and  _31
REMARK   15  A    between atoms: _31  and  _32
REMARK   16  A    between atoms: _31  and  _34
REMARK   17  A    between atoms: _34  and  _35
REMARK   18  A    between atoms: _35  and  _36
REMARK   19  A    between atoms: _39  and  _41
REMARK   20  A    between atoms: _41  and  _42
REMARK   21  A    between atoms: _41  and  _44
REMARK   22  A    between atoms: _44  and  _45
REMARK   23  A    between atoms: _50  and  _51
REMARK   24  A    between atoms: _53  and  _55
REMARK   25  A    between atoms: _55  and  _56
REMARK   26  A    between atoms: _55  and  _58
REMARK   27  A    between atoms: _58  and  _59
REMARK   28  A    between atoms: _64  and  _66
REMARK   29  A    between atoms: _66  and  _67
REMARK   30  A    between atoms: _66  and  _69
REMARK   31  A    between atoms: _69  and  _70
REMARK   32  A    between atoms: _73  and  _75
REMARK   33  A    between atoms: _75  and  _76
REMARK   34  A    between atoms: _75  and  _78
REMARK   35  A    between atoms: _78  and  _79
REMARK   36  A    between atoms: _82  and  _84
REMARK   37  A    between atoms: _84  and  _85
REMARK   38  A    between atoms: _87  and  _89
REMARK   39  A    between atoms: _89  and  _90
REMARK   40  A    between atoms: _89  and  _92
REMARK   41  A    between atoms: _92  and  _93
REMARK   42  A    between atoms: _95  and  _97
REMARK   43  A    between atoms: _97  and  _98
REMARK   44  A    between atoms: _97  and  _100
REMARK   45  A    between atoms: _100  and  _101
REMARK   46  A    between atoms: _104  and  _106
REMARK   47  A    between atoms: _106  and  _107
REMARK   48  A    between atoms: _106  and  _109
REMARK   49  A    between atoms: _109  and  _110
REMARK   50  A    between atoms: _112  and  _114
REMARK   51  A    between atoms: _114  and  _115
REMARK   52  A    between atoms: _114  and  _117
REMARK   53  A    between atoms: _117  and  _118
REMARK   54  A    between atoms: _123  and  _124
REMARK   55  A    between atoms: _126  and  _128
REMARK   56  A    between atoms: _128  and  _129
REMARK   57  A    between atoms: _131  and  _133
REMARK   58  A    between atoms: _133  and  _134
REMARK   59  A    between atoms: _133  and  _136
REMARK   60  A    between atoms: _136  and  _137
REMARK   61  A    between atoms: _140  and  _142
REMARK   62  A    between atoms: _142  and  _143
REMARK   63  A    between atoms: _145  and  _147
REMARK   64  A    between atoms: _147  and  _148
REMARK   65  A    between atoms: _147  and  _150
REMARK   66  A    between atoms: _150  and  _151
REMARK   67  A    between atoms: _153  and  _155
REMARK   68  A    between atoms: _155  and  _156
REMARK   69  A    between atoms: _155  and  _158
REMARK   70  A    between atoms: _158  and  _159
REMARK   71  A    between atoms: _159  and  _160
REMARK   72  A    between atoms: _165  and  _167
REMARK   73  A    between atoms: _167  and  _168
REMARK   74  A    between atoms: _167  and  _170
REMARK   75  A    between atoms: _170  and  _171
REMARK   76  A    between atoms: _177  and  _179
REMARK   77  A    between atoms: _179  and  _180
REMARK   78  A    between atoms: _179  and  _182
REMARK   79  A    between atoms: _182  and  _183
REMARK   80  A    between atoms: _186  and  _188
REMARK   81  A    between atoms: _188  and  _189
REMARK   82  A    between atoms: _188  and  _191
REMARK   83  A    between atoms: _191  and  _192
REMARK   84  A    between atoms: _197  and  _199
REMARK   85  A    between atoms: _199  and  _200
REMARK   86  A    between atoms: _199  and  _202
REMARK   87  A    between atoms: _202  and  _203
REMARK   88  A    between atoms: _208  and  _210
REMARK   89  A    between atoms: _210  and  _211
REMARK   90  A    between atoms: _210  and  _213
REMARK   91  A    between atoms: _213  and  _214
REMARK   92  A    between atoms: _217  and  _219
REMARK   93  A    between atoms: _219  and  _220
REMARK   94  A    between atoms: _223  and  _225
REMARK   95  A    between atoms: _225  and  _226
REMARK   96  A    between atoms: _225  and  _228
REMARK   97  A    between atoms: _228  and  _229
REMARK   98  A    between atoms: _232  and  _234
REMARK   99  A    between atoms: _234  and  _235
REMARK  100  A    between atoms: _234  and  _237
REMARK  101  A    between atoms: _237  and  _238
REMARK  102  A    between atoms: _244  and  _246
REMARK  103  A    between atoms: _246  and  _247
REMARK  104  A    between atoms: _246  and  _249
REMARK  105  A    between atoms: _249  and  _250
REMARK  106  A    between atoms: _253  and  _255
REMARK  107  A    between atoms: _255  and  _256
REMARK  108  A    between atoms: _255  and  _258
REMARK  109  A    between atoms: _258  and  _259
REMARK  110  A    between atoms: _262  and  _264
REMARK  111  A    between atoms: _264  and  _265
REMARK  112  A    between atoms: _264  and  _267
REMARK  113  A    between atoms: _267  and  _268
REMARK  114  A    between atoms: _271  and  _273
REMARK  115  A    between atoms: _273  and  _274
REMARK  116  A    between atoms: _276  and  _278
REMARK  117  A    between atoms: _278  and  _279
REMARK  118  A    between atoms: _278  and  _281
REMARK  119  A    between atoms: _281  and  _282
REMARK  120  A    between atoms: _285  and  _287
REMARK  121  A    between atoms: _287  and  _288
REMARK  122  A    between atoms: _287  and  _290
REMARK  123  A    between atoms: _290  and  _291
REMARK  124  A    between atoms: _294  and  _296
REMARK  125  A    between atoms: _296  and  _297
REMARK  126  A    between atoms: _296  and  _299
REMARK  127  A    between atoms: _299  and  _300
REMARK  128  A    between atoms: _303  and  _305
REMARK  129  A    between atoms: _305  and  _306
REMARK  130  A    between atoms: _305  and  _308
REMARK  131  A    between atoms: _308  and  _309
REMARK  132  A    between atoms: _312  and  _314
REMARK  133  A    between atoms: _314  and  _315
REMARK  134  A    between atoms: _314  and  _317
REMARK  135  A    between atoms: _317  and  _318
REMARK  136  A    between atoms: _321  and  _323
REMARK  137  A    between atoms: _323  and  _324
REMARK  138  A    between atoms: _323  and  _326
REMARK  139  A    between atoms: _326  and  _327
REMARK  140  A    between atoms: _330  and  _332
REMARK  141  A    between atoms: _332  and  _333
REMARK  142  A    between atoms: _332  and  _335
REMARK  143  A    between atoms: _335  and  _336
REMARK  144  A    between atoms: _338  and  _340
REMARK  145  A    between atoms: _340  and  _341
REMARK  146  A    between atoms: _340  and  _343
REMARK  147  A    between atoms: _343  and  _344
REMARK  148  A    between atoms: _349  and  _351
REMARK  149  A    between atoms: _351  and  _352
REMARK  150  A    between atoms: _355  and  _357
REMARK  151  A    between atoms: _357  and  _358
REMARK  152  A    between atoms: _360  and  _362
REMARK  153  A    between atoms: _362  and  _363
REMARK  154  A    between atoms: _365  and  _367
REMARK  155  A    between atoms: _367  and  _368
REMARK  156  A    between atoms: _367  and  _370
REMARK  157  A    between atoms: _370  and  _371
REMARK  158  A    between atoms: _376  and  _377
REMARK  159  A    between atoms: _379  and  _381
REMARK  160  A    between atoms: _381  and  _382
REMARK  161  A    between atoms: _381  and  _384
REMARK  162  A    between atoms: _384  and  _385
REMARK  163  A    between atoms: _390  and  _391
REMARK  164  A    between atoms: _393  and  _395
REMARK  165  A    between atoms: _395  and  _396
REMARK  166  A    between atoms: _395  and  _398
REMARK  167  A    between atoms: _398  and  _399
REMARK  168  A    between atoms: _401  and  _403
REMARK  169  A    between atoms: _403  and  _404
REMARK  170  A    between atoms: _403  and  _406
REMARK  171  A    between atoms: _406  and  _407
REMARK  172  A    between atoms: _410  and  _412
REMARK  173  A    between atoms: _412  and  _413
REMARK  174  A    between atoms: _415  and  _417
REMARK  175  A    between atoms: _417  and  _418
REMARK  176  A    between atoms: _420  and  _422
REMARK  177  A    between atoms: _422  and  _423
REMARK  178  A    between atoms: _422  and  _425
REMARK  179  A    between atoms: _425  and  _426
REMARK  180  A    between atoms: _429  and  _431
REMARK  181  A    between atoms: _431  and  _432
REMARK  182  A    between atoms: _431  and  _434
REMARK  183  A    between atoms: _434  and  _435
REMARK  184  A    between atoms: _435  and  _436
REMARK  185  A    between atoms: _441  and  _443
REMARK  186  A    between atoms: _443  and  _444
REMARK  187  A    between atoms: _443  and  _446
REMARK  188  A    between atoms: _446  and  _447
REMARK  189  A    between atoms: _449  and  _451
REMARK  190  A    between atoms: _451  and  _452
REMARK  191  A    between atoms: _451  and  _454
REMARK  192  A    between atoms: _454  and  _455
REMARK  193  A    between atoms: _460  and  _462
REMARK  194  A    between atoms: _462  and  _463
REMARK  195  A    between atoms: _462  and  _465
REMARK  196  A    between atoms: _465  and  _466
REMARK  197  A    between atoms: _468  and  _470
REMARK  198  A    between atoms: _470  and  _471
REMARK  199  A    between atoms: _473  and  _475
REMARK  200  A    between atoms: _475  and  _476
REMARK  201  A    between atoms: _475  and  _478
REMARK  202  A    between atoms: _478  and  _479
REMARK  203  A    between atoms: _482  and  _484
REMARK  204  A    between atoms: _484  and  _485
REMARK  205  A    between atoms: _484  and  _487
REMARK  206  A    between atoms: _487  and  _488
REMARK  207  A    between atoms: _494  and  _496
REMARK  208  A    between atoms: _496  and  _497
REMARK  209  A    between atoms: _496  and  _499
REMARK  210  A    between atoms: _499  and  _500
REMARK  211  A    between atoms: _502  and  _504
REMARK  212  A    between atoms: _504  and  _505
REMARK  213  A    between atoms: _504  and  _507
REMARK  214  A    between atoms: _507  and  _508
REMARK  215  A    between atoms: _511  and  _513
REMARK  216  A    between atoms: _513  and  _514
REMARK  217  A    between atoms: _516  and  _518
REMARK  218  A    between atoms: _518  and  _519
REMARK  219  A    between atoms: _518  and  _521
REMARK  220  A    between atoms: _521  and  _522
REMARK  221  A    between atoms: _525  and  _527
REMARK  222  A    between atoms: _527  and  _528
REMARK  223  A    between atoms: _527  and  _530
REMARK  224  A    between atoms: _530  and  _531
REMARK  225  A    between atoms: _533  and  _535
REMARK  226  A    between atoms: _535  and  _536
REMARK  227  A    between atoms: _538  and  _540
REMARK  228  A    between atoms: _540  and  _541
REMARK  229  A    between atoms: _540  and  _543
REMARK  230  A    between atoms: _543  and  _544
REMARK  231  A    between atoms: _549  and  _550
REMARK  232  A    between atoms: _552  and  _554
REMARK  233  A    between atoms: _554  and  _555
REMARK  234  A    between atoms: _554  and  _557
REMARK  235  A    between atoms: _557  and  _558
REMARK  236  A    between atoms: _561  and  _563
REMARK  237  A    between atoms: _563  and  _564
REMARK  238  A    between atoms: _563  and  _566
REMARK  239  A    between atoms: _566  and  _567
REMARK  240  A    between atoms: _567  and  _568
REMARK  241  A    between atoms: _574  and  _575
REMARK  242  A    between atoms: _580  and  _582
REMARK  243  A    between atoms: _582  and  _583
REMARK  244  A    between atoms: _582  and  _585
REMARK  245  A    between atoms: _585  and  _586
REMARK  246  A    between atoms: _586  and  _587
REMARK                            x       y       z     vdW  Elec       q    Type
REMARK                         _______ _______ _______ _____ _____    ______ ____
ROOT
ATOM      1  O   HOH     1      23.973   2.522  17.653  0.00  0.00    +0.000 OA
ENDROOT
TORSDOF 0
REMARK  Name = ../refined-set-2016/2wec/2wec_pocket.pdb
REMARK  246 active torsions:
REMARK  status: ('A' for Active; 'I' for Inactive)
REMARK    1  A    between atoms: _1  and  _3
REMARK    2  A    between atoms: _3  and  _4
REMARK    3  A    between atoms: _3  and  _6
REMARK    4  A    between atoms: _6  and  _7
REMARK    5  A    between atoms: _10  and  _12
REMARK    6  A    between atoms: _12  and  _13
REMARK    7  A    between atoms: _12  and  _15
REMARK    8  A    between atoms: _15  and  _16
REMARK    9  A    between atoms: _19  and  _21
REMARK   10  A    between atoms: _21  and  _22
REMARK   11  A    between atoms: _21  and  _24
REMARK   12  A    between atoms: _24  and  _25
REMARK   13  A    between atoms: _25  and  _26
REMARK   14  A    between atoms: _29  and  _31
REMARK   15  A    between atoms: _31  and  _32
REMARK   16  A    between atoms: _31  and  _34
REMARK   17  A    between atoms: _34  and  _35
REMARK   18  A    between atoms: _35  and  _36
REMARK   19  A    between atoms: _39  and  _41
REMARK   20  A    between atoms: _41  and  _42
REMARK   21  A    between atoms: _41  and  _44
REMARK   22  A    between atoms: _44  and  _45
REMARK   23  A    between atoms: _50  and  _51
REMARK   24  A    between atoms: _53  and  _55
REMARK   25  A    between atoms: _55  and  _56
REMARK   26  A    between atoms: _55  and  _58
REMARK   27  A    between atoms: _58  and  _59
REMARK   28  A    between atoms: _64  and  _66
REMARK   29  A    between atoms: _66  and  _67
REMARK   30  A    between atoms: _66  and  _69
REMARK   31  A    between atoms: _69  and  _70
REMARK   32  A    between atoms: _73  and  _75
REMARK   33  A    between atoms: _75  and  _76
REMARK   34  A    between atoms: _75  and  _78
REMARK   35  A    between atoms: _78  and  _79
REMARK   36  A    between atoms: _82  and  _84
REMARK   37  A    between atoms: _84  and  _85
REMARK   38  A    between atoms: _87  and  _89
REMARK   39  A    between atoms: _89  and  _90
REMARK   40  A    between atoms: _89  and  _92
REMARK   41  A    between atoms: _92  and  _93
REMARK   42  A    between atoms: _95  and  _97
REMARK   43  A    between atoms: _97  and  _98
REMARK   44  A    between atoms: _97  and  _100
REMARK   45  A    between atoms: _100  and  _101
REMARK   46  A    between atoms: _104  and  _106
REMARK   47  A    between atoms: _106  and  _107
REMARK   48  A    between atoms: _106  and  _109
REMARK   49  A    between atoms: _109  and  _110
REMARK   50  A    between atoms: _112  and  _114
REMARK   51  A    between atoms: _114  and  _115
REMARK   52  A    between atoms: _114  and  _117
REMARK   53  A    between atoms: _117  and  _118
REMARK   54  A    between atoms: _123  and  _124
REMARK   55  A    between atoms: _126  and  _128
REMARK   56  A    between atoms: _128  and  _129
REMARK   57  A    between atoms: _131  and  _133
REMARK   58  A    between atoms: _133  and  _134
REMARK   59  A    between atoms: _133  and  _136
REMARK   60  A    between atoms: _136  and  _137
REMARK   61  A    between atoms: _140  and  _142
REMARK   62  A    between atoms: _142  and  _143
REMARK   63  A    between atoms: _145  and  _147
REMARK   64  A    between atoms: _147  and  _148
REMARK   65  A    between atoms: _147  and  _150
REMARK   66  A    between atoms: _150  and  _151
REMARK   67  A    between atoms: _153  and  _155
REMARK   68  A    between atoms: _155  and  _156
REMARK   69  A    between atoms: _155  and  _158
REMARK   70  A    between atoms: _158  and  _159
REMARK   71  A    between atoms: _159  and  _160
REMARK   72  A    between atoms: _165  and  _167
REMARK   73  A    between atoms: _167  and  _168
REMARK   74  A    between atoms: _167  and  _170
REMARK   75  A    between atoms: _170  and  _171
REMARK   76  A    between atoms: _177  and  _179
REMARK   77  A    between atoms: _179  and  _180
REMARK   78  A    between atoms: _179  and  _182
REMARK   79  A    between atoms: _182  and  _183
REMARK   80  A    between atoms: _186  and  _188
REMARK   81  A    between atoms: _188  and  _189
REMARK   82  A    between atoms: _188  and  _191
REMARK   83  A    between atoms: _191  and  _192
REMARK   84  A    between atoms: _197  and  _199
REMARK   85  A    between atoms: _199  and  _200
REMARK   86  A    between atoms: _199  and  _202
REMARK   87  A    between atoms: _202  and  _203
REMARK   88  A    between atoms: _208  and  _210
REMARK   89  A    between atoms: _210  and  _211
REMARK   90  A    between atoms: _210  and  _213
REMARK   91  A    between atoms: _213  and  _214
REMARK   92  A    between atoms: _217  and  _219
REMARK   93  A    between atoms: _219  and  _220
REMARK   94  A    between atoms: _223  and  _225
REMARK   95  A    between atoms: _225  and  _226
REMARK   96  A    between atoms: _225  and  _228
REMARK   97  A    between atoms: _228  and  _229
REMARK   98  A    between atoms: _232  and  _234
REMARK   99  A    between atoms: _234  and  _235
REMARK  100  A    between atoms: _234  and  _237
REMARK  101  A    between atoms: _237  and  _238
REMARK  102  A    between atoms: _244  and  _246
REMARK  103  A    between atoms: _246  and  _247
REMARK  104  A    between atoms: _246  and  _249
REMARK  105  A    between atoms: _249  and  _250
REMARK  106  A    between atoms: _253  and  _255
REMARK  107  A    between atoms: _255  and  _256
REMARK  108  A    between atoms: _255  and  _258
REMARK  109  A    between atoms: _258  and  _259
REMARK  110  A    between atoms: _262  and  _264
REMARK  111  A    between atoms: _264  and  _265
REMARK  112  A    between atoms: _264  and  _267
REMARK  113  A    between atoms: _267  and  _268
REMARK  114  A    between atoms: _271  and  _273
REMARK  115  A    between atoms: _273  and  _274
REMARK  116  A    between atoms: _276  and  _278
REMARK  117  A    between atoms: _278  and  _279
REMARK  118  A    between atoms: _278  and  _281
REMARK  119  A    between atoms: _281  and  _282
REMARK  120  A    between atoms: _285  and  _287
REMARK  121  A    between atoms: _287  and  _288
REMARK  122  A    between atoms: _287  and  _290
REMARK  123  A    between atoms: _290  and  _291
REMARK  124  A    between atoms: _294  and  _296
REMARK  125  A    between atoms: _296  and  _297
REMARK  126  A    between atoms: _296  and  _299
REMARK  127  A    between atoms: _299  and  _300
REMARK  128  A    between atoms: _303  and  _305
REMARK  129  A    between atoms: _305  and  _306
REMARK  130  A    between atoms: _305  and  _308
REMARK  131  A    between atoms: _308  and  _309
REMARK  132  A    between atoms: _312  and  _314
REMARK  133  A    between atoms: _314  and  _315
REMARK  134  A    between atoms: _314  and  _317
REMARK  135  A    between atoms: _317  and  _318
REMARK  136  A    between atoms: _321  and  _323
REMARK  137  A    between atoms: _323  and  _324
REMARK  138  A    between atoms: _323  and  _326
REMARK  139  A    between atoms: _326  and  _327
REMARK  140  A    between atoms: _330  and  _332
REMARK  141  A    between atoms: _332  and  _333
REMARK  142  A    between atoms: _332  and  _335
REMARK  143  A    between atoms: _335  and  _336
REMARK  144  A    between atoms: _338  and  _340
REMARK  145  A    between atoms: _340  and  _341
REMARK  146  A    between atoms: _340  and  _343
REMARK  147  A    between atoms: _343  and  _344
REMARK  148  A    between atoms: _349  and  _351
REMARK  149  A    between atoms: _351  and  _352
REMARK  150  A    between atoms: _355  and  _357
REMARK  151  A    between atoms: _357  and  _358
REMARK  152  A    between atoms: _360  and  _362
REMARK  153  A    between atoms: _362  and  _363
REMARK  154  A    between atoms: _365  and  _367
REMARK  155  A    between atoms: _367  and  _368
REMARK  156  A    between atoms: _367  and  _370
REMARK  157  A    between atoms: _370  and  _371
REMARK  158  A    between atoms: _376  and  _377
REMARK  159  A    between atoms: _379  and  _381
REMARK  160  A    between atoms: _381  and  _382
REMARK  161  A    between atoms: _381  and  _384
REMARK  162  A    between atoms: _384  and  _385
REMARK  163  A    between atoms: _390  and  _391
REMARK  164  A    between atoms: _393  and  _395
REMARK  165  A    between atoms: _395  and  _396
REMARK  166  A    between atoms: _395  and  _398
REMARK  167  A    between atoms: _398  and  _399
REMARK  168  A    between atoms: _401  and  _403
REMARK  169  A    between atoms: _403  and  _404
REMARK  170  A    between atoms: _403  and  _406
REMARK  171  A    between atoms: _406  and  _407
REMARK  172  A    between atoms: _410  and  _412
REMARK  173  A    between atoms: _412  and  _413
REMARK  174  A    between atoms: _415  and  _417
REMARK  175  A    between atoms: _417  and  _418
REMARK  176  A    between atoms: _420  and  _422
REMARK  177  A    between atoms: _422  and  _423
REMARK  178  A    between atoms: _422  and  _425
REMARK  179  A    between atoms: _425  and  _426
REMARK  180  A    between atoms: _429  and  _431
REMARK  181  A    between atoms: _431  and  _432
REMARK  182  A    between atoms: _431  and  _434
REMARK  183  A    between atoms: _434  and  _435
REMARK  184  A    between atoms: _435  and  _436
REMARK  185  A    between atoms: _441  and  _443
REMARK  186  A    between atoms: _443  and  _444
REMARK  187  A    between atoms: _443  and  _446
REMARK  188  A    between atoms: _446  and  _447
REMARK  189  A    between atoms: _449  and  _451
REMARK  190  A    between atoms: _451  and  _452
REMARK  191  A    between atoms: _451  and  _454
REMARK  192  A    between atoms: _454  and  _455
REMARK  193  A    between atoms: _460  and  _462
REMARK  194  A    between atoms: _462  and  _463
REMARK  195  A    between atoms: _462  and  _465
REMARK  196  A    between atoms: _465  and  _466
REMARK  197  A    between atoms: _468  and  _470
REMARK  198  A    between atoms: _470  and  _471
REMARK  199  A    between atoms: _473  and  _475
REMARK  200  A    between atoms: _475  and  _476
REMARK  201  A    between atoms: _475  and  _478
REMARK  202  A    between atoms: _478  and  _479
REMARK  203  A    between atoms: _482  and  _484
REMARK  204  A    between atoms: _484  and  _485
REMARK  205  A    between atoms: _484  and  _487
REMARK  206  A    between atoms: _487  and  _488
REMARK  207  A    between atoms: _494  and  _496
REMARK  208  A    between atoms: _496  and  _497
REMARK  209  A    between atoms: _496  and  _499
REMARK  210  A    between atoms: _499  and  _500
REMARK  211  A    between atoms: _502  and  _504
REMARK  212  A    between atoms: _504  and  _505
REMARK  213  A    between atoms: _504  and  _507
REMARK  214  A    between atoms: _507  and  _508
REMARK  215  A    between atoms: _511  and  _513
REMARK  216  A    between atoms: _513  and  _514
REMARK  217  A    between atoms: _516  and  _518
REMARK  218  A    between atoms: _518  and  _519
REMARK  219  A    between atoms: _518  and  _521
REMARK  220  A    between atoms: _521  and  _522
REMARK  221  A    between atoms: _525  and  _527
REMARK  222  A    between atoms: _527  and  _528
REMARK  223  A    between atoms: _527  and  _530
REMARK  224  A    between atoms: _530  and  _531
REMARK  225  A    between atoms: _533  and  _535
REMARK  226  A    between atoms: _535  and  _536
REMARK  227  A    between atoms: _538  and  _540
REMARK  228  A    between atoms: _540  and  _541
REMARK  229  A    between atoms: _540  and  _543
REMARK  230  A    between atoms: _543  and  _544
REMARK  231  A    between atoms: _549  and  _550
REMARK  232  A    between atoms: _552  and  _554
REMARK  233  A    between atoms: _554  and  _555
REMARK  234  A    between atoms: _554  and  _557
REMARK  235  A    between atoms: _557  and  _558
REMARK  236  A    between atoms: _561  and  _563
REMARK  237  A    between atoms: _563  and  _564
REMARK  238  A    between atoms: _563  and  _566
REMARK  239  A    between atoms: _566  and  _567
REMARK  240  A    between atoms: _567  and  _568
REMARK  241  A    between atoms: _574  and  _575
REMARK  242  A    between atoms: _580  and  _582
REMARK  243  A    between atoms: _582  and  _583
REMARK  244  A    between atoms: _582  and  _585
REMARK  245  A    between atoms: _585  and  _586
REMARK  246  A    between atoms: _586  and  _587
REMARK                            x       y       z     vdW  Elec       q    Type
REMARK                         _______ _______ _______ _____ _____    ______ ____
ROOT
ATOM      1  O   HOH     1      16.472   3.020  22.154  0.00  0.00    +0.000 OA
ENDROOT
TORSDOF 0
REMARK  Name = ../refined-set-2016/2wec/2wec_pocket.pdb
REMARK  246 active torsions:
REMARK  status: ('A' for Active; 'I' for Inactive)
REMARK    1  A    between atoms: _1  and  _3
REMARK    2  A    between atoms: _3  and  _4
REMARK    3  A    between atoms: _3  and  _6
REMARK    4  A    between atoms: _6  and  _7
REMARK    5  A    between atoms: _10  and  _12
REMARK    6  A    between atoms: _12  and  _13
REMARK    7  A    between atoms: _12  and  _15
REMARK    8  A    between atoms: _15  and  _16
REMARK    9  A    between atoms: _19  and  _21
REMARK   10  A    between atoms: _21  and  _22
REMARK   11  A    between atoms: _21  and  _24
REMARK   12  A    between atoms: _24  and  _25
REMARK   13  A    between atoms: _25  and  _26
REMARK   14  A    between atoms: _29  and  _31
REMARK   15  A    between atoms: _31  and  _32
REMARK   16  A    between atoms: _31  and  _34
REMARK   17  A    between atoms: _34  and  _35
REMARK   18  A    between atoms: _35  and  _36
REMARK   19  A    between atoms: _39  and  _41
REMARK   20  A    between atoms: _41  and  _42
REMARK   21  A    between atoms: _41  and  _44
REMARK   22  A    between atoms: _44  and  _45
REMARK   23  A    between atoms: _50  and  _51
REMARK   24  A    between atoms: _53  and  _55
REMARK   25  A    between atoms: _55  and  _56
REMARK   26  A    between atoms: _55  and  _58
REMARK   27  A    between atoms: _58  and  _59
REMARK   28  A    between atoms: _64  and  _66
REMARK   29  A    between atoms: _66  and  _67
REMARK   30  A    between atoms: _66  and  _69
REMARK   31  A    between atoms: _69  and  _70
REMARK   32  A    between atoms: _73  and  _75
REMARK   33  A    between atoms: _75  and  _76
REMARK   34  A    between atoms: _75  and  _78
REMARK   35  A    between atoms: _78  and  _79
REMARK   36  A    between atoms: _82  and  _84
REMARK   37  A    between atoms: _84  and  _85
REMARK   38  A    between atoms: _87  and  _89
REMARK   39  A    between atoms: _89  and  _90
REMARK   40  A    between atoms: _89  and  _92
REMARK   41  A    between atoms: _92  and  _93
REMARK   42  A    between atoms: _95  and  _97
REMARK   43  A    between atoms: _97  and  _98
REMARK   44  A    between atoms: _97  and  _100
REMARK   45  A    between atoms: _100  and  _101
REMARK   46  A    between atoms: _104  and  _106
REMARK   47  A    between atoms: _106  and  _107
REMARK   48  A    between atoms: _106  and  _109
REMARK   49  A    between atoms: _109  and  _110
REMARK   50  A    between atoms: _112  and  _114
REMARK   51  A    between atoms: _114  and  _115
REMARK   52  A    between atoms: _114  and  _117
REMARK   53  A    between atoms: _117  and  _118
REMARK   54  A    between atoms: _123  and  _124
REMARK   55  A    between atoms: _126  and  _128
REMARK   56  A    between atoms: _128  and  _129
REMARK   57  A    between atoms: _131  and  _133
REMARK   58  A    between atoms: _133  and  _134
REMARK   59  A    between atoms: _133  and  _136
REMARK   60  A    between atoms: _136  and  _137
REMARK   61  A    between atoms: _140  and  _142
REMARK   62  A    between atoms: _142  and  _143
REMARK   63  A    between atoms: _145  and  _147
REMARK   64  A    between atoms: _147  and  _148
REMARK   65  A    between atoms: _147  and  _150
REMARK   66  A    between atoms: _150  and  _151
REMARK   67  A    between atoms: _153  and  _155
REMARK   68  A    between atoms: _155  and  _156
REMARK   69  A    between atoms: _155  and  _158
REMARK   70  A    between atoms: _158  and  _159
REMARK   71  A    between atoms: _159  and  _160
REMARK   72  A    between atoms: _165  and  _167
REMARK   73  A    between atoms: _167  and  _168
REMARK   74  A    between atoms: _167  and  _170
REMARK   75  A    between atoms: _170  and  _171
REMARK   76  A    between atoms: _177  and  _179
REMARK   77  A    between atoms: _179  and  _180
REMARK   78  A    between atoms: _179  and  _182
REMARK   79  A    between atoms: _182  and  _183
REMARK   80  A    between atoms: _186  and  _188
REMARK   81  A    between atoms: _188  and  _189
REMARK   82  A    between atoms: _188  and  _191
REMARK   83  A    between atoms: _191  and  _192
REMARK   84  A    between atoms: _197  and  _199
REMARK   85  A    between atoms: _199  and  _200
REMARK   86  A    between atoms: _199  and  _202
REMARK   87  A    between atoms: _202  and  _203
REMARK   88  A    between atoms: _208  and  _210
REMARK   89  A    between atoms: _210  and  _211
REMARK   90  A    between atoms: _210  and  _213
REMARK   91  A    between atoms: _213  and  _214
REMARK   92  A    between atoms: _217  and  _219
REMARK   93  A    between atoms: _219  and  _220
REMARK   94  A    between atoms: _223  and  _225
REMARK   95  A    between atoms: _225  and  _226
REMARK   96  A    between atoms: _225  and  _228
REMARK   97  A    between atoms: _228  and  _229
REMARK   98  A    between atoms: _232  and  _234
REMARK   99  A    between atoms: _234  and  _235
REMARK  100  A    between atoms: _234  and  _237
REMARK  101  A    between atoms: _237  and  _238
REMARK  102  A    between atoms: _244  and  _246
REMARK  103  A    between atoms: _246  and  _247
REMARK  104  A    between atoms: _246  and  _249
REMARK  105  A    between atoms: _249  and  _250
REMARK  106  A    between atoms: _253  and  _255
REMARK  107  A    between atoms: _255  and  _256
REMARK  108  A    between atoms: _255  and  _258
REMARK  109  A    between atoms: _258  and  _259
REMARK  110  A    between atoms: _262  and  _264
REMARK  111  A    between atoms: _264  and  _265
REMARK  112  A    between atoms: _264  and  _267
REMARK  113  A    between atoms: _267  and  _268
REMARK  114  A    between atoms: _271  and  _273
REMARK  115  A    between atoms: _273  and  _274
REMARK  116  A    between atoms: _276  and  _278
REMARK  117  A    between atoms: _278  and  _279
REMARK  118  A    between atoms: _278  and  _281
REMARK  119  A    between atoms: _281  and  _282
REMARK  120  A    between atoms: _285  and  _287
REMARK  121  A    between atoms: _287  and  _288
REMARK  122  A    between atoms: _287  and  _290
REMARK  123  A    between atoms: _290  and  _291
REMARK  124  A    between atoms: _294  and  _296
REMARK  125  A    between atoms: _296  and  _297
REMARK  126  A    between atoms: _296  and  _299
REMARK  127  A    between atoms: _299  and  _300
REMARK  128  A    between atoms: _303  and  _305
REMARK  129  A    between atoms: _305  and  _306
REMARK  130  A    between atoms: _305  and  _308
REMARK  131  A    between atoms: _308  and  _309
REMARK  132  A    between atoms: _312  and  _314
REMARK  133  A    between atoms: _314  and  _315
REMARK  134  A    between atoms: _314  and  _317
REMARK  135  A    between atoms: _317  and  _318
REMARK  136  A    between atoms: _321  and  _323
REMARK  137  A    between atoms: _323  and  _324
REMARK  138  A    between atoms: _323  and  _326
REMARK  139  A    between atoms: _326  and  _327
REMARK  140  A    between atoms: _330  and  _332
REMARK  141  A    between atoms: _332  and  _333
REMARK  142  A    between atoms: _332  and  _335
REMARK  143  A    between atoms: _335  and  _336
REMARK  144  A    between atoms: _338  and  _340
REMARK  145  A    between atoms: _340  and  _341
REMARK  146  A    between atoms: _340  and  _343
REMARK  147  A    between atoms: _343  and  _344
REMARK  148  A    between atoms: _349  and  _351
REMARK  149  A    between atoms: _351  and  _352
REMARK  150  A    between atoms: _355  and  _357
REMARK  151  A    between atoms: _357  and  _358
REMARK  152  A    between atoms: _360  and  _362
REMARK  153  A    between atoms: _362  and  _363
REMARK  154  A    between atoms: _365  and  _367
REMARK  155  A    between atoms: _367  and  _368
REMARK  156  A    between atoms: _367  and  _370
REMARK  157  A    between atoms: _370  and  _371
REMARK  158  A    between atoms: _376  and  _377
REMARK  159  A    between atoms: _379  and  _381
REMARK  160  A    between atoms: _381  and  _382
REMARK  161  A    between atoms: _381  and  _384
REMARK  162  A    between atoms: _384  and  _385
REMARK  163  A    between atoms: _390  and  _391
REMARK  164  A    between atoms: _393  and  _395
REMARK  165  A    between atoms: _395  and  _396
REMARK  166  A    between atoms: _395  and  _398
REMARK  167  A    between atoms: _398  and  _399
REMARK  168  A    between atoms: _401  and  _403
REMARK  169  A    between atoms: _403  and  _404
REMARK  170  A    between atoms: _403  and  _406
REMARK  171  A    between atoms: _406  and  _407
REMARK  172  A    between atoms: _410  and  _412
REMARK  173  A    between atoms: _412  and  _413
REMARK  174  A    between atoms: _415  and  _417
REMARK  175  A    between atoms: _417  and  _418
REMARK  176  A    between atoms: _420  and  _422
REMARK  177  A    between atoms: _422  and  _423
REMARK  178  A    between atoms: _422  and  _425
REMARK  179  A    between atoms: _425  and  _426
REMARK  180  A    between atoms: _429  and  _431
REMARK  181  A    between atoms: _431  and  _432
REMARK  182  A    between atoms: _431  and  _434
REMARK  183  A    between atoms: _434  and  _435
REMARK  184  A    between atoms: _435  and  _436
REMARK  185  A    between atoms: _441  and  _443
REMARK  186  A    between atoms: _443  and  _444
REMARK  187  A    between atoms: _443  and  _446
REMARK  188  A    between atoms: _446  and  _447
REMARK  189  A    between atoms: _449  and  _451
REMARK  190  A    between atoms: _451  and  _452
REMARK  191  A    between atoms: _451  and  _454
REMARK  192  A    between atoms: _454  and  _455
REMARK  193  A    between atoms: _460  and  _462
REMARK  194  A    between atoms: _462  and  _463
REMARK  195  A    between atoms: _462  and  _465
REMARK  196  A    between atoms: _465  and  _466
REMARK  197  A    between atoms: _468  and  _470
REMARK  198  A    between atoms: _470  and  _471
REMARK  199  A    between atoms: _473  and  _475
REMARK  200  A    between atoms: _475  and  _476
REMARK  201  A    between atoms: _475  and  _478
REMARK  202  A    between atoms: _478  and  _479
REMARK  203  A    between atoms: _482  and  _484
REMARK  204  A    between atoms: _484  and  _485
REMARK  205  A    between atoms: _484  and  _487
REMARK  206  A    between atoms: _487  and  _488
REMARK  207  A    between atoms: _494  and  _496
REMARK  208  A    between atoms: _496  and  _497
REMARK  209  A    between atoms: _496  and  _499
REMARK  210  A    between atoms: _499  and  _500
REMARK  211  A    between atoms: _502  and  _504
REMARK  212  A    between atoms: _504  and  _505
REMARK  213  A    between atoms: _504  and  _507
REMARK  214  A    between atoms: _507  and  _508
REMARK  215  A    between atoms: _511  and  _513
REMARK  216  A    between atoms: _513  and  _514
REMARK  217  A    between atoms: _516  and  _518
REMARK  218  A    between atoms: _518  and  _519
REMARK  219  A    between atoms: _518  and  _521
REMARK  220  A    between atoms: _521  and  _522
REMARK  221  A    between atoms: _525  and  _527
REMARK  222  A    between atoms: _527  and  _528
REMARK  223  A    between atoms: _527  and  _530
REMARK  224  A    between atoms: _530  and  _531
REMARK  225  A    between atoms: _533  and  _535
REMARK  226  A    between atoms: _535  and  _536
REMARK  227  A    between atoms: _538  and  _540
REMARK  228  A    between atoms: _540  and  _541
REMARK  229  A    between atoms: _540  and  _543
REMARK  230  A    between atoms: _543  and  _544
REMARK  231  A    between atoms: _549  and  _550
REMARK  232  A    between atoms: _552  and  _554
REMARK  233  A    between atoms: _554  and  _555
REMARK  234  A    between atoms: _554  and  _557
REMARK  235  A    between atoms: _557  and  _558
REMARK  236  A    between atoms: _561  and  _563
REMARK  237  A    between atoms: _563  and  _564
REMARK  238  A    between atoms: _563  and  _566
REMARK  239  A    between atoms: _566  and  _567
REMARK  240  A    between atoms: _567  and  _568
REMARK  241  A    between atoms: _574  and  _575
REMARK  242  A    between atoms: _580  and  _582
REMARK  243  A    between atoms: _582  and  _583
REMARK  244  A    between atoms: _582  and  _585
REMARK  245  A    between atoms: _585  and  _586
REMARK  246  A    between atoms: _586  and  _587
REMARK                            x       y       z     vdW  Elec       q    Type
REMARK                         _______ _______ _______ _____ _____    ______ ____
ROOT
ATOM      1  O   HOH     1      18.900   8.202  23.452  0.00  0.00    +0.000 OA
ENDROOT
TORSDOF 0
