REMARK  Name = ../refined-set-2016/3oy8/3oy8_pocket.pdb
REMARK  102 active torsions:
REMARK  status: ('A' for Active; 'I' for Inactive)
REMARK    1  A    between atoms: _1  and  _3
REMARK    2  A    between atoms: _3  and  _4
REMARK    3  A    between atoms: _3  and  _6
REMARK    4  A    between atoms: _6  and  _7
REMARK    5  A    between atoms: _9  and  _11
REMARK    6  A    between atoms: _11  and  _12
REMARK    7  A    between atoms: _11  and  _14
REMARK    8  A    between atoms: _14  and  _15
REMARK    9  A    between atoms: _21  and  _23
REMARK   10  A    between atoms: _23  and  _24
REMARK   11  A    between atoms: _23  and  _26
REMARK   12  A    between atoms: _29  and  _31
REMARK   13  A    between atoms: _31  and  _32
REMARK   14  A    between atoms: _31  and  _34
REMARK   15  A    between atoms: _34  and  _35
REMARK   16  A    between atoms: _40  and  _42
REMARK   17  A    between atoms: _42  and  _43
REMARK   18  A    between atoms: _42  and  _45
REMARK   19  A    between atoms: _45  and  _46
REMARK   20  A    between atoms: _51  and  _53
REMARK   21  A    between atoms: _53  and  _54
REMARK   22  A    between atoms: _53  and  _56
REMARK   23  A    between atoms: _56  and  _57
REMARK   24  A    between atoms: _63  and  _65
REMARK   25  A    between atoms: _65  and  _66
REMARK   26  A    between atoms: _65  and  _68
REMARK   27  A    between atoms: _68  and  _69
REMARK   28  A    between atoms: _74  and  _76
REMARK   29  A    between atoms: _76  and  _77
REMARK   30  A    between atoms: _76  and  _79
REMARK   31  A    between atoms: _79  and  _80
REMARK   32  A    between atoms: _80  and  _81
REMARK   33  A    between atoms: _81  and  _82
REMARK   34  A    between atoms: _91  and  _93
REMARK   35  A    between atoms: _93  and  _94
REMARK   36  A    between atoms: _97  and  _99
REMARK   37  A    between atoms: _99  and  _100
REMARK   38  A    between atoms: _99  and  _102
REMARK   39  A    between atoms: _102  and  _103
REMARK   40  A    between atoms: _108  and  _110
REMARK   41  A    between atoms: _110  and  _111
REMARK   42  A    between atoms: _113  and  _115
REMARK   43  A    between atoms: _115  and  _116
REMARK   44  A    between atoms: _115  and  _118
REMARK   45  A    between atoms: _118  and  _119
REMARK   46  A    between atoms: _122  and  _124
REMARK   47  A    between atoms: _124  and  _125
REMARK   48  A    between atoms: _124  and  _127
REMARK   49  A    between atoms: _130  and  _132
REMARK   50  A    between atoms: _132  and  _133
REMARK   51  A    between atoms: _132  and  _135
REMARK   52  A    between atoms: _137  and  _139
REMARK   53  A    between atoms: _139  and  _140
REMARK   54  A    between atoms: _139  and  _142
REMARK   55  A    between atoms: _142  and  _143
REMARK   56  A    between atoms: _148  and  _150
REMARK   57  A    between atoms: _150  and  _151
REMARK   58  A    between atoms: _150  and  _153
REMARK   59  A    between atoms: _153  and  _154
REMARK   60  A    between atoms: _156  and  _158
REMARK   61  A    between atoms: _158  and  _159
REMARK   62  A    between atoms: _158  and  _161
REMARK   63  A    between atoms: _161  and  _162
REMARK   64  A    between atoms: _162  and  _163
REMARK   65  A    between atoms: _163  and  _164
REMARK   66  A    between atoms: _164  and  _165
REMARK   67  A    between atoms: _169  and  _171
REMARK   68  A    between atoms: _171  and  _172
REMARK   69  A    between atoms: _171  and  _174
REMARK   70  A    between atoms: _174  and  _175
REMARK   71  A    between atoms: _185  and  _187
REMARK   72  A    between atoms: _187  and  _188
REMARK   73  A    between atoms: _190  and  _192
REMARK   74  A    between atoms: _192  and  _193
REMARK   75  A    between atoms: _192  and  _195
REMARK   76  A    between atoms: _195  and  _196
REMARK   77  A    between atoms: _199  and  _201
REMARK   78  A    between atoms: _201  and  _202
REMARK   79  A    between atoms: _201  and  _204
REMARK   80  A    between atoms: _204  and  _205
REMARK   81  A    between atoms: _205  and  _206
REMARK   82  A    between atoms: _209  and  _211
REMARK   83  A    between atoms: _211  and  _212
REMARK   84  A    between atoms: _211  and  _214
REMARK   85  A    between atoms: _214  and  _215
REMARK   86  A    between atoms: _215  and  _216
REMARK   87  A    between atoms: _221  and  _223
REMARK   88  A    between atoms: _223  and  _224
REMARK   89  A    between atoms: _223  and  _226
REMARK   90  A    between atoms: _226  and  _227
REMARK   91  A    between atoms: _227  and  _228
REMARK   92  A    between atoms: _228  and  _229
REMARK   93  A    between atoms: _238  and  _240
REMARK   94  A    between atoms: _240  and  _241
REMARK   95  A    between atoms: _240  and  _243
REMARK   96  A    between atoms: _243  and  _244
REMARK   97  A    between atoms: _244  and  _245
REMARK   98  A    between atoms: _245  and  _246
REMARK   99  A    between atoms: _255  and  _257
REMARK  100  A    between atoms: _257  and  _258
REMARK  101  A    between atoms: _257  and  _260
REMARK  102  A    between atoms: _260  and  _261
REMARK                            x       y       z     vdW  Elec       q    Type
REMARK                         _______ _______ _______ _____ _____    ______ ____
ROOT
ATOM      1  CA  PHE A   2      20.172   7.547   8.681  0.00  0.00    +0.153 C 
ENDROOT
BRANCH   1   3
ATOM      2  C   SER A   1      21.974   6.293   7.611  0.00  0.00    +0.241 C 
ATOM      3  N   PHE A   2      20.734   6.319   8.103  0.00  0.00    -0.297 N 
ATOM      4  H   PHE A   2      20.156   5.455   8.077  0.00  0.00    +0.150 HD
ATOM      5  O   SER A   1      22.597   7.310   7.309  0.00  0.00    -0.274 OA
BRANCH   2   6
ATOM      6  CA  SER A   1      22.616   4.925   7.422  0.00  0.00    +0.174 C 
BRANCH   6   7
ATOM      7  N   SER A   1      23.524   4.957   6.280  0.00  0.00    -0.236 NA
ATOM      8  H   SER A   1      23.813   5.880   5.898  0.00  0.00    +0.142 HD
ENDBRANCH   6   7
BRANCH   6   9
ATOM      9  CB  SER A   1      23.415   4.564   8.682  0.00  0.00    +0.163 C 
BRANCH   9  10
ATOM     10  OG  SER A   1      22.673   4.800   9.858  0.00  0.00    -0.380 OA
ATOM     11  H   SER A   1      22.430   5.759   9.907  0.00  0.00    +0.211 HD
ENDBRANCH   9  10
ENDBRANCH   6   9
ENDBRANCH   2   6
ENDBRANCH   1   3
BRANCH   1  12
ATOM     12  C   PHE A   2      19.298   7.279   9.909  0.00  0.00    +0.241 C 
ATOM     13  N   VAL A   3      19.096   8.322  10.707  0.00  0.00    -0.298 N 
ATOM     14  H   VAL A   3      19.448   9.254  10.410  0.00  0.00    +0.150 HD
ATOM     15  O   PHE A   2      18.848   6.148  10.137  0.00  0.00    -0.273 OA
BRANCH  13  16
ATOM     16  CA  VAL A   3      18.401   8.210  11.981  0.00  0.00    +0.137 C 
BRANCH  16  17
ATOM     17  CB  VAL A   3      19.399   8.319  13.167  0.00  0.00    +0.026 C 
ATOM     18  CG2 VAL A   3      18.667   8.405  14.493  0.00  0.00    +0.002 C 
ATOM     19  CG1 VAL A   3      20.363   7.133  13.175  0.00  0.00    +0.002 C 
ENDBRANCH  16  17
BRANCH  16  20
ATOM     20  C   VAL A   3      17.311   9.274  12.114  0.00  0.00    +0.227 C 
ATOM     21  O   VAL A   3      17.531  10.436  11.787  0.00  0.00    -0.286 OA
ENDBRANCH  16  20
ENDBRANCH  13  16
ENDBRANCH   1  12
BRANCH   1  22
ATOM     22  CB  PHE A   2      19.506   8.472   7.634  0.00  0.00    +0.055 C 
BRANCH  22  23
ATOM     23  CG  PHE A   2      18.085   8.099   7.254  0.00  0.00    -0.020 A 
ATOM     24  CD2 PHE A   2      16.996   8.611   7.965  0.00  0.00    -0.004 A 
ATOM     25  CE2 PHE A   2      15.679   8.297   7.598  0.00  0.00    -0.000 A 
ATOM     26  CZ  PHE A   2      15.446   7.469   6.493  0.00  0.00    -0.000 A 
ATOM     27  CE1 PHE A   2      16.526   6.966   5.767  0.00  0.00    -0.000 A 
ATOM     28  CD1 PHE A   2      17.837   7.294   6.145  0.00  0.00    -0.004 A 
ENDBRANCH  22  23
ENDBRANCH   1  22
TORSDOF 11
REMARK  Name = ../refined-set-2016/3oy8/3oy8_pocket.pdb
REMARK  102 active torsions:
REMARK  status: ('A' for Active; 'I' for Inactive)
REMARK    1  A    between atoms: _1  and  _3
REMARK    2  A    between atoms: _3  and  _4
REMARK    3  A    between atoms: _3  and  _6
REMARK    4  A    between atoms: _6  and  _7
REMARK    5  A    between atoms: _9  and  _11
REMARK    6  A    between atoms: _11  and  _12
REMARK    7  A    between atoms: _11  and  _14
REMARK    8  A    between atoms: _14  and  _15
REMARK    9  A    between atoms: _21  and  _23
REMARK   10  A    between atoms: _23  and  _24
REMARK   11  A    between atoms: _23  and  _26
REMARK   12  A    between atoms: _29  and  _31
REMARK   13  A    between atoms: _31  and  _32
REMARK   14  A    between atoms: _31  and  _34
REMARK   15  A    between atoms: _34  and  _35
REMARK   16  A    between atoms: _40  and  _42
REMARK   17  A    between atoms: _42  and  _43
REMARK   18  A    between atoms: _42  and  _45
REMARK   19  A    between atoms: _45  and  _46
REMARK   20  A    between atoms: _51  and  _53
REMARK   21  A    between atoms: _53  and  _54
REMARK   22  A    between atoms: _53  and  _56
REMARK   23  A    between atoms: _56  and  _57
REMARK   24  A    between atoms: _63  and  _65
REMARK   25  A    between atoms: _65  and  _66
REMARK   26  A    between atoms: _65  and  _68
REMARK   27  A    between atoms: _68  and  _69
REMARK   28  A    between atoms: _74  and  _76
REMARK   29  A    between atoms: _76  and  _77
REMARK   30  A    between atoms: _76  and  _79
REMARK   31  A    between atoms: _79  and  _80
REMARK   32  A    between atoms: _80  and  _81
REMARK   33  A    between atoms: _81  and  _82
REMARK   34  A    between atoms: _91  and  _93
REMARK   35  A    between atoms: _93  and  _94
REMARK   36  A    between atoms: _97  and  _99
REMARK   37  A    between atoms: _99  and  _100
REMARK   38  A    between atoms: _99  and  _102
REMARK   39  A    between atoms: _102  and  _103
REMARK   40  A    between atoms: _108  and  _110
REMARK   41  A    between atoms: _110  and  _111
REMARK   42  A    between atoms: _113  and  _115
REMARK   43  A    between atoms: _115  and  _116
REMARK   44  A    between atoms: _115  and  _118
REMARK   45  A    between atoms: _118  and  _119
REMARK   46  A    between atoms: _122  and  _124
REMARK   47  A    between atoms: _124  and  _125
REMARK   48  A    between atoms: _124  and  _127
REMARK   49  A    between atoms: _130  and  _132
REMARK   50  A    between atoms: _132  and  _133
REMARK   51  A    between atoms: _132  and  _135
REMARK   52  A    between atoms: _137  and  _139
REMARK   53  A    between atoms: _139  and  _140
REMARK   54  A    between atoms: _139  and  _142
REMARK   55  A    between atoms: _142  and  _143
REMARK   56  A    between atoms: _148  and  _150
REMARK   57  A    between atoms: _150  and  _151
REMARK   58  A    between atoms: _150  and  _153
REMARK   59  A    between atoms: _153  and  _154
REMARK   60  A    between atoms: _156  and  _158
REMARK   61  A    between atoms: _158  and  _159
REMARK   62  A    between atoms: _158  and  _161
REMARK   63  A    between atoms: _161  and  _162
REMARK   64  A    between atoms: _162  and  _163
REMARK   65  A    between atoms: _163  and  _164
REMARK   66  A    between atoms: _164  and  _165
REMARK   67  A    between atoms: _169  and  _171
REMARK   68  A    between atoms: _171  and  _172
REMARK   69  A    between atoms: _171  and  _174
REMARK   70  A    between atoms: _174  and  _175
REMARK   71  A    between atoms: _185  and  _187
REMARK   72  A    between atoms: _187  and  _188
REMARK   73  A    between atoms: _190  and  _192
REMARK   74  A    between atoms: _192  and  _193
REMARK   75  A    between atoms: _192  and  _195
REMARK   76  A    between atoms: _195  and  _196
REMARK   77  A    between atoms: _199  and  _201
REMARK   78  A    between atoms: _201  and  _202
REMARK   79  A    between atoms: _201  and  _204
REMARK   80  A    between atoms: _204  and  _205
REMARK   81  A    between atoms: _205  and  _206
REMARK   82  A    between atoms: _209  and  _211
REMARK   83  A    between atoms: _211  and  _212
REMARK   84  A    between atoms: _211  and  _214
REMARK   85  A    between atoms: _214  and  _215
REMARK   86  A    between atoms: _215  and  _216
REMARK   87  A    between atoms: _221  and  _223
REMARK   88  A    between atoms: _223  and  _224
REMARK   89  A    between atoms: _223  and  _226
REMARK   90  A    between atoms: _226  and  _227
REMARK   91  A    between atoms: _227  and  _228
REMARK   92  A    between atoms: _228  and  _229
REMARK   93  A    between atoms: _238  and  _240
REMARK   94  A    between atoms: _240  and  _241
REMARK   95  A    between atoms: _240  and  _243
REMARK   96  A    between atoms: _243  and  _244
REMARK   97  A    between atoms: _244  and  _245
REMARK   98  A    between atoms: _245  and  _246
REMARK   99  A    between atoms: _255  and  _257
REMARK  100  A    between atoms: _257  and  _258
REMARK  101  A    between atoms: _257  and  _260
REMARK  102  A    between atoms: _260  and  _261
REMARK                            x       y       z     vdW  Elec       q    Type
REMARK                         _______ _______ _______ _____ _____    ______ ____
ROOT
ATOM      1  CB  ASN A   1      16.072  10.508  17.714  0.00  0.00    +0.110 C 
ENDROOT
BRANCH   1   2
ATOM      2  CG  ASN A   1      17.190   9.476  17.606  0.00  0.00    +0.221 C 
ATOM      3  ND2 ASN A   1      18.425   9.932  17.785  0.00  0.00    -0.329 N 
ATOM      4 HD21 ASN A   1      18.584  10.942  17.975  0.00  0.00    +0.145 HD
ATOM      5 HD22 ASN A   1      19.233   9.279  17.735  0.00  0.00    +0.145 HD
ATOM      6  OD1 ASN A   1      16.953   8.288  17.378  0.00  0.00    -0.275 OA
ENDBRANCH   1   2
BRANCH   1   7
ATOM      7  CA  ASN A   1      14.832  10.142  16.881  0.00  0.00    +0.142 C 
BRANCH   7   8
ATOM      8  N   ASN A   1      15.084  10.337  15.456  0.00  0.00    -0.239 NA
ATOM      9  H   ASN A   1      15.454  11.255  15.135  0.00  0.00    +0.142 HD
ENDBRANCH   7   8
BRANCH   7  10
ATOM     10  C   ASN A   1      13.643  10.989  17.321  0.00  0.00    +0.225 C 
ATOM     11  O   ASN A   1      13.582  12.183  17.019  0.00  0.00    -0.287 OA
ENDBRANCH   7  10
ENDBRANCH   1   7
TORSDOF 4
REMARK  Name = ../refined-set-2016/3oy8/3oy8_pocket.pdb
REMARK  102 active torsions:
REMARK  status: ('A' for Active; 'I' for Inactive)
REMARK    1  A    between atoms: _1  and  _3
REMARK    2  A    between atoms: _3  and  _4
REMARK    3  A    between atoms: _3  and  _6
REMARK    4  A    between atoms: _6  and  _7
REMARK    5  A    between atoms: _9  and  _11
REMARK    6  A    between atoms: _11  and  _12
REMARK    7  A    between atoms: _11  and  _14
REMARK    8  A    between atoms: _14  and  _15
REMARK    9  A    between atoms: _21  and  _23
REMARK   10  A    between atoms: _23  and  _24
REMARK   11  A    between atoms: _23  and  _26
REMARK   12  A    between atoms: _29  and  _31
REMARK   13  A    between atoms: _31  and  _32
REMARK   14  A    between atoms: _31  and  _34
REMARK   15  A    between atoms: _34  and  _35
REMARK   16  A    between atoms: _40  and  _42
REMARK   17  A    between atoms: _42  and  _43
REMARK   18  A    between atoms: _42  and  _45
REMARK   19  A    between atoms: _45  and  _46
REMARK   20  A    between atoms: _51  and  _53
REMARK   21  A    between atoms: _53  and  _54
REMARK   22  A    between atoms: _53  and  _56
REMARK   23  A    between atoms: _56  and  _57
REMARK   24  A    between atoms: _63  and  _65
REMARK   25  A    between atoms: _65  and  _66
REMARK   26  A    between atoms: _65  and  _68
REMARK   27  A    between atoms: _68  and  _69
REMARK   28  A    between atoms: _74  and  _76
REMARK   29  A    between atoms: _76  and  _77
REMARK   30  A    between atoms: _76  and  _79
REMARK   31  A    between atoms: _79  and  _80
REMARK   32  A    between atoms: _80  and  _81
REMARK   33  A    between atoms: _81  and  _82
REMARK   34  A    between atoms: _91  and  _93
REMARK   35  A    between atoms: _93  and  _94
REMARK   36  A    between atoms: _97  and  _99
REMARK   37  A    between atoms: _99  and  _100
REMARK   38  A    between atoms: _99  and  _102
REMARK   39  A    between atoms: _102  and  _103
REMARK   40  A    between atoms: _108  and  _110
REMARK   41  A    between atoms: _110  and  _111
REMARK   42  A    between atoms: _113  and  _115
REMARK   43  A    between atoms: _115  and  _116
REMARK   44  A    between atoms: _115  and  _118
REMARK   45  A    between atoms: _118  and  _119
REMARK   46  A    between atoms: _122  and  _124
REMARK   47  A    between atoms: _124  and  _125
REMARK   48  A    between atoms: _124  and  _127
REMARK   49  A    between atoms: _130  and  _132
REMARK   50  A    between atoms: _132  and  _133
REMARK   51  A    between atoms: _132  and  _135
REMARK   52  A    between atoms: _137  and  _139
REMARK   53  A    between atoms: _139  and  _140
REMARK   54  A    between atoms: _139  and  _142
REMARK   55  A    between atoms: _142  and  _143
REMARK   56  A    between atoms: _148  and  _150
REMARK   57  A    between atoms: _150  and  _151
REMARK   58  A    between atoms: _150  and  _153
REMARK   59  A    between atoms: _153  and  _154
REMARK   60  A    between atoms: _156  and  _158
REMARK   61  A    between atoms: _158  and  _159
REMARK   62  A    between atoms: _158  and  _161
REMARK   63  A    between atoms: _161  and  _162
REMARK   64  A    between atoms: _162  and  _163
REMARK   65  A    between atoms: _163  and  _164
REMARK   66  A    between atoms: _164  and  _165
REMARK   67  A    between atoms: _169  and  _171
REMARK   68  A    between atoms: _171  and  _172
REMARK   69  A    between atoms: _171  and  _174
REMARK   70  A    between atoms: _174  and  _175
REMARK   71  A    between atoms: _185  and  _187
REMARK   72  A    between atoms: _187  and  _188
REMARK   73  A    between atoms: _190  and  _192
REMARK   74  A    between atoms: _192  and  _193
REMARK   75  A    between atoms: _192  and  _195
REMARK   76  A    between atoms: _195  and  _196
REMARK   77  A    between atoms: _199  and  _201
REMARK   78  A    between atoms: _201  and  _202
REMARK   79  A    between atoms: _201  and  _204
REMARK   80  A    between atoms: _204  and  _205
REMARK   81  A    between atoms: _205  and  _206
REMARK   82  A    between atoms: _209  and  _211
REMARK   83  A    between atoms: _211  and  _212
REMARK   84  A    between atoms: _211  and  _214
REMARK   85  A    between atoms: _214  and  _215
REMARK   86  A    between atoms: _215  and  _216
REMARK   87  A    between atoms: _221  and  _223
REMARK   88  A    between atoms: _223  and  _224
REMARK   89  A    between atoms: _223  and  _226
REMARK   90  A    between atoms: _226  and  _227
REMARK   91  A    between atoms: _227  and  _228
REMARK   92  A    between atoms: _228  and  _229
REMARK   93  A    between atoms: _238  and  _240
REMARK   94  A    between atoms: _240  and  _241
REMARK   95  A    between atoms: _240  and  _243
REMARK   96  A    between atoms: _243  and  _244
REMARK   97  A    between atoms: _244  and  _245
REMARK   98  A    between atoms: _245  and  _246
REMARK   99  A    between atoms: _255  and  _257
REMARK  100  A    between atoms: _257  and  _258
REMARK  101  A    between atoms: _257  and  _260
REMARK  102  A    between atoms: _260  and  _261
REMARK                            x       y       z     vdW  Elec       q    Type
REMARK                         _______ _______ _______ _____ _____    ______ ____
ROOT
ATOM      1  CA  PHE A   2      14.181   4.823  13.662  0.00  0.00    +0.153 C 
ENDROOT
BRANCH   1   4
ATOM      2  C   HIS A   1      14.611   4.704  16.095  0.00  0.00    +0.239 C 
ATOM      3  O   HIS A   1      14.543   3.483  16.131  0.00  0.00    -0.274 OA
ATOM      4  N   PHE A   2      14.483   5.409  14.973  0.00  0.00    -0.297 N 
ATOM      5  H   PHE A   2      14.605   6.440  15.029  0.00  0.00    +0.150 HD
BRANCH   2   6
ATOM      6  CA  HIS A   1      14.798   5.511  17.383  0.00  0.00    +0.151 C 
BRANCH   6   7
ATOM      7  N   HIS A   1      13.550   5.372  18.114  0.00  0.00    -0.238 NA
ATOM      8  H   HIS A   1      13.329   4.449  18.538  0.00  0.00    +0.142 HD
ENDBRANCH   6   7
BRANCH   6   9
ATOM      9  CB  HIS A   1      15.957   4.965  18.229  0.00  0.00    +0.074 C 
BRANCH   9  10
ATOM     10  CG  HIS A   1      17.243   4.804  17.484  0.00  0.00    +0.082 A 
ATOM     11  ND1 HIS A   1      18.092   5.860  17.225  0.00  0.00    -0.227 NA
ATOM     12  CE1 HIS A   1      19.150   5.419  16.566  0.00  0.00    +0.199 A 
ATOM     13  NE2 HIS A   1      19.019   4.116  16.391  0.00  0.00    -0.221 NA
ATOM     14  CD2 HIS A   1      17.842   3.704  16.968  0.00  0.00    +0.115 A 
ENDBRANCH   9  10
ENDBRANCH   6   9
ENDBRANCH   2   6
ENDBRANCH   1   4
BRANCH   1  15
ATOM     15  C   PHE A   2      15.449   4.928  12.820  0.00  0.00    +0.241 C 
ATOM     16  O   PHE A   2      15.904   6.030  12.505  0.00  0.00    -0.273 OA
ATOM     17  N   ASN A   3      16.027   3.781  12.475  0.00  0.00    -0.298 N 
ATOM     18  H   ASN A   3      15.511   2.889  12.616  0.00  0.00    +0.150 HD
BRANCH  17  19
ATOM     19  CA  ASN A   3      17.377   3.745  11.900  0.00  0.00    +0.146 C 
BRANCH  19  20
ATOM     20  C   ASN A   3      17.484   2.771  10.714  0.00  0.00    +0.227 C 
ATOM     21  O   ASN A   3      17.906   1.625  10.887  0.00  0.00    -0.286 OA
ENDBRANCH  19  20
BRANCH  19  22
ATOM     22  CB  ASN A   3      18.414   3.437  13.010  0.00  0.00    +0.112 C 
BRANCH  22  23
ATOM     23  CG  ASN A   3      19.859   3.294  12.491  0.00  0.00    +0.222 C 
ATOM     24  OD1 ASN A   3      20.636   2.506  13.034  0.00  0.00    -0.275 OA
ATOM     25  ND2 ASN A   3      20.223   4.063  11.467  0.00  0.00    -0.329 N 
ATOM     26 HD21 ASN A   3      21.194   4.012  11.097  0.00  0.00    +0.145 HD
ATOM     27 HD22 ASN A   3      19.537   4.715  11.037  0.00  0.00    +0.145 HD
ENDBRANCH  22  23
ENDBRANCH  19  22
ENDBRANCH  17  19
ENDBRANCH   1  15
BRANCH   1  28
ATOM     28  CB  PHE A   2      13.019   5.605  13.027  0.00  0.00    +0.055 C 
BRANCH  28  29
ATOM     29  CG  PHE A   2      12.676   5.193  11.611  0.00  0.00    -0.020 A 
ATOM     30  CD2 PHE A   2      11.912   4.047  11.361  0.00  0.00    -0.004 A 
ATOM     31  CE2 PHE A   2      11.572   3.681  10.053  0.00  0.00    -0.000 A 
ATOM     32  CZ  PHE A   2      11.986   4.475   8.975  0.00  0.00    -0.000 A 
ATOM     33  CE1 PHE A   2      12.734   5.626   9.215  0.00  0.00    -0.000 A 
ATOM     34  CD1 PHE A   2      13.071   5.980  10.531  0.00  0.00    -0.004 A 
ENDBRANCH  28  29
ENDBRANCH   1  28
TORSDOF 12
REMARK  Name = ../refined-set-2016/3oy8/3oy8_pocket.pdb
REMARK  102 active torsions:
REMARK  status: ('A' for Active; 'I' for Inactive)
REMARK    1  A    between atoms: _1  and  _3
REMARK    2  A    between atoms: _3  and  _4
REMARK    3  A    between atoms: _3  and  _6
REMARK    4  A    between atoms: _6  and  _7
REMARK    5  A    between atoms: _9  and  _11
REMARK    6  A    between atoms: _11  and  _12
REMARK    7  A    between atoms: _11  and  _14
REMARK    8  A    between atoms: _14  and  _15
REMARK    9  A    between atoms: _21  and  _23
REMARK   10  A    between atoms: _23  and  _24
REMARK   11  A    between atoms: _23  and  _26
REMARK   12  A    between atoms: _29  and  _31
REMARK   13  A    between atoms: _31  and  _32
REMARK   14  A    between atoms: _31  and  _34
REMARK   15  A    between atoms: _34  and  _35
REMARK   16  A    between atoms: _40  and  _42
REMARK   17  A    between atoms: _42  and  _43
REMARK   18  A    between atoms: _42  and  _45
REMARK   19  A    between atoms: _45  and  _46
REMARK   20  A    between atoms: _51  and  _53
REMARK   21  A    between atoms: _53  and  _54
REMARK   22  A    between atoms: _53  and  _56
REMARK   23  A    between atoms: _56  and  _57
REMARK   24  A    between atoms: _63  and  _65
REMARK   25  A    between atoms: _65  and  _66
REMARK   26  A    between atoms: _65  and  _68
REMARK   27  A    between atoms: _68  and  _69
REMARK   28  A    between atoms: _74  and  _76
REMARK   29  A    between atoms: _76  and  _77
REMARK   30  A    between atoms: _76  and  _79
REMARK   31  A    between atoms: _79  and  _80
REMARK   32  A    between atoms: _80  and  _81
REMARK   33  A    between atoms: _81  and  _82
REMARK   34  A    between atoms: _91  and  _93
REMARK   35  A    between atoms: _93  and  _94
REMARK   36  A    between atoms: _97  and  _99
REMARK   37  A    between atoms: _99  and  _100
REMARK   38  A    between atoms: _99  and  _102
REMARK   39  A    between atoms: _102  and  _103
REMARK   40  A    between atoms: _108  and  _110
REMARK   41  A    between atoms: _110  and  _111
REMARK   42  A    between atoms: _113  and  _115
REMARK   43  A    between atoms: _115  and  _116
REMARK   44  A    between atoms: _115  and  _118
REMARK   45  A    between atoms: _118  and  _119
REMARK   46  A    between atoms: _122  and  _124
REMARK   47  A    between atoms: _124  and  _125
REMARK   48  A    between atoms: _124  and  _127
REMARK   49  A    between atoms: _130  and  _132
REMARK   50  A    between atoms: _132  and  _133
REMARK   51  A    between atoms: _132  and  _135
REMARK   52  A    between atoms: _137  and  _139
REMARK   53  A    between atoms: _139  and  _140
REMARK   54  A    between atoms: _139  and  _142
REMARK   55  A    between atoms: _142  and  _143
REMARK   56  A    between atoms: _148  and  _150
REMARK   57  A    between atoms: _150  and  _151
REMARK   58  A    between atoms: _150  and  _153
REMARK   59  A    between atoms: _153  and  _154
REMARK   60  A    between atoms: _156  and  _158
REMARK   61  A    between atoms: _158  and  _159
REMARK   62  A    between atoms: _158  and  _161
REMARK   63  A    between atoms: _161  and  _162
REMARK   64  A    between atoms: _162  and  _163
REMARK   65  A    between atoms: _163  and  _164
REMARK   66  A    between atoms: _164  and  _165
REMARK   67  A    between atoms: _169  and  _171
REMARK   68  A    between atoms: _171  and  _172
REMARK   69  A    between atoms: _171  and  _174
REMARK   70  A    between atoms: _174  and  _175
REMARK   71  A    between atoms: _185  and  _187
REMARK   72  A    between atoms: _187  and  _188
REMARK   73  A    between atoms: _190  and  _192
REMARK   74  A    between atoms: _192  and  _193
REMARK   75  A    between atoms: _192  and  _195
REMARK   76  A    between atoms: _195  and  _196
REMARK   77  A    between atoms: _199  and  _201
REMARK   78  A    between atoms: _201  and  _202
REMARK   79  A    between atoms: _201  and  _204
REMARK   80  A    between atoms: _204  and  _205
REMARK   81  A    between atoms: _205  and  _206
REMARK   82  A    between atoms: _209  and  _211
REMARK   83  A    between atoms: _211  and  _212
REMARK   84  A    between atoms: _211  and  _214
REMARK   85  A    between atoms: _214  and  _215
REMARK   86  A    between atoms: _215  and  _216
REMARK   87  A    between atoms: _221  and  _223
REMARK   88  A    between atoms: _223  and  _224
REMARK   89  A    between atoms: _223  and  _226
REMARK   90  A    between atoms: _226  and  _227
REMARK   91  A    between atoms: _227  and  _228
REMARK   92  A    between atoms: _228  and  _229
REMARK   93  A    between atoms: _238  and  _240
REMARK   94  A    between atoms: _240  and  _241
REMARK   95  A    between atoms: _240  and  _243
REMARK   96  A    between atoms: _243  and  _244
REMARK   97  A    between atoms: _244  and  _245
REMARK   98  A    between atoms: _245  and  _246
REMARK   99  A    between atoms: _255  and  _257
REMARK  100  A    between atoms: _257  and  _258
REMARK  101  A    between atoms: _257  and  _260
REMARK  102  A    between atoms: _260  and  _261
REMARK                            x       y       z     vdW  Elec       q    Type
REMARK                         _______ _______ _______ _____ _____    ______ ____
ROOT
ATOM      1  NE  ARG A   1      21.706  -0.041  12.465  0.00  0.00    -0.265 N 
ATOM      2  CZ  ARG A   1      21.980  -0.699  13.590  0.00  0.00    +0.342 C 
ATOM      3  NH2 ARG A   1      21.959  -0.057  14.751  0.00  0.00    -0.292 N 
ATOM      4 HH21 ARG A   1      22.172  -0.568  15.632  0.00  0.00    +0.255 HD
ATOM      5 HH22 ARG A   1      21.729   0.957  14.781  0.00  0.00    +0.255 HD
ATOM      6  NH1 ARG A   1      22.280  -1.994  13.560  0.00  0.00    -0.292 N 
ATOM      7 HH11 ARG A   1      22.493  -2.499  14.444  0.00  0.00    +0.255 HD
ATOM      8 HH12 ARG A   1      22.302  -2.502  12.653  0.00  0.00    +0.255 HD
ATOM      9  HE  ARG A   1      21.480   0.971  12.542  0.00  0.00    +0.259 HD
ENDROOT
BRANCH   1  10
ATOM     10  CD  ARG A   1      21.700  -0.639  11.125  0.00  0.00    +0.174 C 
BRANCH  10  11
ATOM     11  CG  ARG A   1      21.409   0.401  10.060  0.00  0.00    +0.045 C 
BRANCH  11  12
ATOM     12  CB  ARG A   1      21.250  -0.206   8.674  0.00  0.00    +0.029 C 
BRANCH  12  13
ATOM     13  CA  ARG A   1      20.669   0.774   7.654  0.00  0.00    +0.133 C 
BRANCH  13  14
ATOM     14  N   ARG A   1      19.271   1.049   7.949  0.00  0.00    -0.239 NA
ATOM     15  H   ARG A   1      18.620   0.252   8.100  0.00  0.00    +0.142 HD
ENDBRANCH  13  14
BRANCH  13  16
ATOM     16  C   ARG A   1      20.800   0.246   6.231  0.00  0.00    +0.224 C 
ATOM     17  O   ARG A   1      20.378  -0.873   5.934  0.00  0.00    -0.287 OA
ENDBRANCH  13  16
ENDBRANCH  12  13
ENDBRANCH  11  12
ENDBRANCH  10  11
ENDBRANCH   1  10
TORSDOF 6
REMARK  Name = ../refined-set-2016/3oy8/3oy8_pocket.pdb
REMARK  102 active torsions:
REMARK  status: ('A' for Active; 'I' for Inactive)
REMARK    1  A    between atoms: _1  and  _3
REMARK    2  A    between atoms: _3  and  _4
REMARK    3  A    between atoms: _3  and  _6
REMARK    4  A    between atoms: _6  and  _7
REMARK    5  A    between atoms: _9  and  _11
REMARK    6  A    between atoms: _11  and  _12
REMARK    7  A    between atoms: _11  and  _14
REMARK    8  A    between atoms: _14  and  _15
REMARK    9  A    between atoms: _21  and  _23
REMARK   10  A    between atoms: _23  and  _24
REMARK   11  A    between atoms: _23  and  _26
REMARK   12  A    between atoms: _29  and  _31
REMARK   13  A    between atoms: _31  and  _32
REMARK   14  A    between atoms: _31  and  _34
REMARK   15  A    between atoms: _34  and  _35
REMARK   16  A    between atoms: _40  and  _42
REMARK   17  A    between atoms: _42  and  _43
REMARK   18  A    between atoms: _42  and  _45
REMARK   19  A    between atoms: _45  and  _46
REMARK   20  A    between atoms: _51  and  _53
REMARK   21  A    between atoms: _53  and  _54
REMARK   22  A    between atoms: _53  and  _56
REMARK   23  A    between atoms: _56  and  _57
REMARK   24  A    between atoms: _63  and  _65
REMARK   25  A    between atoms: _65  and  _66
REMARK   26  A    between atoms: _65  and  _68
REMARK   27  A    between atoms: _68  and  _69
REMARK   28  A    between atoms: _74  and  _76
REMARK   29  A    between atoms: _76  and  _77
REMARK   30  A    between atoms: _76  and  _79
REMARK   31  A    between atoms: _79  and  _80
REMARK   32  A    between atoms: _80  and  _81
REMARK   33  A    between atoms: _81  and  _82
REMARK   34  A    between atoms: _91  and  _93
REMARK   35  A    between atoms: _93  and  _94
REMARK   36  A    between atoms: _97  and  _99
REMARK   37  A    between atoms: _99  and  _100
REMARK   38  A    between atoms: _99  and  _102
REMARK   39  A    between atoms: _102  and  _103
REMARK   40  A    between atoms: _108  and  _110
REMARK   41  A    between atoms: _110  and  _111
REMARK   42  A    between atoms: _113  and  _115
REMARK   43  A    between atoms: _115  and  _116
REMARK   44  A    between atoms: _115  and  _118
REMARK   45  A    between atoms: _118  and  _119
REMARK   46  A    between atoms: _122  and  _124
REMARK   47  A    between atoms: _124  and  _125
REMARK   48  A    between atoms: _124  and  _127
REMARK   49  A    between atoms: _130  and  _132
REMARK   50  A    between atoms: _132  and  _133
REMARK   51  A    between atoms: _132  and  _135
REMARK   52  A    between atoms: _137  and  _139
REMARK   53  A    between atoms: _139  and  _140
REMARK   54  A    between atoms: _139  and  _142
REMARK   55  A    between atoms: _142  and  _143
REMARK   56  A    between atoms: _148  and  _150
REMARK   57  A    between atoms: _150  and  _151
REMARK   58  A    between atoms: _150  and  _153
REMARK   59  A    between atoms: _153  and  _154
REMARK   60  A    between atoms: _156  and  _158
REMARK   61  A    between atoms: _158  and  _159
REMARK   62  A    between atoms: _158  and  _161
REMARK   63  A    between atoms: _161  and  _162
REMARK   64  A    between atoms: _162  and  _163
REMARK   65  A    between atoms: _163  and  _164
REMARK   66  A    between atoms: _164  and  _165
REMARK   67  A    between atoms: _169  and  _171
REMARK   68  A    between atoms: _171  and  _172
REMARK   69  A    between atoms: _171  and  _174
REMARK   70  A    between atoms: _174  and  _175
REMARK   71  A    between atoms: _185  and  _187
REMARK   72  A    between atoms: _187  and  _188
REMARK   73  A    between atoms: _190  and  _192
REMARK   74  A    between atoms: _192  and  _193
REMARK   75  A    between atoms: _192  and  _195
REMARK   76  A    between atoms: _195  and  _196
REMARK   77  A    between atoms: _199  and  _201
REMARK   78  A    between atoms: _201  and  _202
REMARK   79  A    between atoms: _201  and  _204
REMARK   80  A    between atoms: _204  and  _205
REMARK   81  A    between atoms: _205  and  _206
REMARK   82  A    between atoms: _209  and  _211
REMARK   83  A    between atoms: _211  and  _212
REMARK   84  A    between atoms: _211  and  _214
REMARK   85  A    between atoms: _214  and  _215
REMARK   86  A    between atoms: _215  and  _216
REMARK   87  A    between atoms: _221  and  _223
REMARK   88  A    between atoms: _223  and  _224
REMARK   89  A    between atoms: _223  and  _226
REMARK   90  A    between atoms: _226  and  _227
REMARK   91  A    between atoms: _227  and  _228
REMARK   92  A    between atoms: _228  and  _229
REMARK   93  A    between atoms: _238  and  _240
REMARK   94  A    between atoms: _240  and  _241
REMARK   95  A    between atoms: _240  and  _243
REMARK   96  A    between atoms: _243  and  _244
REMARK   97  A    between atoms: _244  and  _245
REMARK   98  A    between atoms: _245  and  _246
REMARK   99  A    between atoms: _255  and  _257
REMARK  100  A    between atoms: _257  and  _258
REMARK  101  A    between atoms: _257  and  _260
REMARK  102  A    between atoms: _260  and  _261
REMARK                            x       y       z     vdW  Elec       q    Type
REMARK                         _______ _______ _______ _____ _____    ______ ____
ROOT
ATOM      1  C   HIS A   2      26.692  -3.820  11.284  0.00  0.00    +0.241 C 
ATOM      2  O   HIS A   2      26.134  -4.637  12.020  0.00  0.00    -0.273 OA
ATOM      3  N   GLY A   3      27.170  -4.144  10.086  0.00  0.00    -0.295 N 
ATOM      4  H   GLY A   3      27.667  -3.423   9.525  0.00  0.00    +0.150 HD
ENDROOT
BRANCH   1   5
ATOM      5  CA  HIS A   2      26.868  -2.361  11.728  0.00  0.00    +0.155 C 
BRANCH   5   7
ATOM      6  C   ALA A   1      25.886  -1.273   9.721  0.00  0.00    +0.238 C 
ATOM      7  N   HIS A   2      26.869  -1.388  10.620  0.00  0.00    -0.297 N 
ATOM      8  H   HIS A   2      27.686  -0.751  10.532  0.00  0.00    +0.150 HD
ATOM      9  O   ALA A   1      24.872  -1.982   9.721  0.00  0.00    -0.274 OA
BRANCH   6  10
ATOM     10  CA  ALA A   1      26.072  -0.188   8.662  0.00  0.00    +0.145 C 
ATOM     11  CB  ALA A   1      25.454   1.121   9.134  0.00  0.00    +0.028 C 
BRANCH  10  12
ATOM     12  N   ALA A   1      25.486  -0.597   7.388  0.00  0.00    -0.238 NA
ATOM     13  H   ALA A   1      24.727  -1.308   7.395  0.00  0.00    +0.142 HD
ENDBRANCH  10  12
ENDBRANCH   6  10
ENDBRANCH   5   7
BRANCH   5  14
ATOM     14  CB  HIS A   2      25.813  -1.995  12.785  0.00  0.00    +0.076 C 
BRANCH  14  15
ATOM     15  CG  HIS A   2      26.008  -0.643  13.398  0.00  0.00    +0.082 A 
ATOM     16  CD2 HIS A   2      26.737  -0.245  14.468  0.00  0.00    +0.115 A 
ATOM     17  NE2 HIS A   2      26.560   1.112  14.597  0.00  0.00    -0.221 NA
ATOM     18  CE1 HIS A   2      25.750   1.532  13.642  0.00  0.00    +0.199 A 
ATOM     19  ND1 HIS A   2      25.401   0.492  12.905  0.00  0.00    -0.227 NA
ENDBRANCH  14  15
ENDBRANCH   5  14
ENDBRANCH   1   5
BRANCH   3  20
ATOM     20  CA  GLY A   3      27.013  -5.491   9.539  0.00  0.00    +0.176 C 
BRANCH  20  21
ATOM     21  C   GLY A   3      25.669  -5.736   8.873  0.00  0.00    +0.243 C 
ATOM     22  N   ASP A   4      24.735  -4.797   9.047  0.00  0.00    -0.297 N 
ATOM     23  H   ASP A   4      24.969  -3.964   9.624  0.00  0.00    +0.150 HD
ATOM     24  O   GLY A   3      25.483  -6.762   8.211  0.00  0.00    -0.273 OA
BRANCH  22  25
ATOM     25  CA  ASP A   4      23.393  -4.888   8.460  0.00  0.00    +0.148 C 
BRANCH  25  26
ATOM     26  C   ASP A   4      23.331  -4.331   7.043  0.00  0.00    +0.227 C 
ATOM     27  O   ASP A   4      24.068  -3.406   6.686  0.00  0.00    -0.286 OA
ENDBRANCH  25  26
BRANCH  25  28
ATOM     28  CB  ASP A   4      22.369  -4.155   9.328  0.00  0.00    +0.142 C 
BRANCH  28  29
ATOM     29  CG  ASP A   4      22.196  -4.786  10.689  0.00  0.00    +0.367 C 
ATOM     30  OD2 ASP A   4      22.333  -4.062  11.695  0.00  0.00    -0.246 OA
ATOM     31  OD1 ASP A   4      21.910  -5.999  10.758  0.00  0.00    -0.246 OA
ENDBRANCH  28  29
ENDBRANCH  25  28
ENDBRANCH  22  25
ENDBRANCH  20  21
ENDBRANCH   3  20
TORSDOF 12
REMARK  Name = ../refined-set-2016/3oy8/3oy8_pocket.pdb
REMARK  102 active torsions:
REMARK  status: ('A' for Active; 'I' for Inactive)
REMARK    1  A    between atoms: _1  and  _3
REMARK    2  A    between atoms: _3  and  _4
REMARK    3  A    between atoms: _3  and  _6
REMARK    4  A    between atoms: _6  and  _7
REMARK    5  A    between atoms: _9  and  _11
REMARK    6  A    between atoms: _11  and  _12
REMARK    7  A    between atoms: _11  and  _14
REMARK    8  A    between atoms: _14  and  _15
REMARK    9  A    between atoms: _21  and  _23
REMARK   10  A    between atoms: _23  and  _24
REMARK   11  A    between atoms: _23  and  _26
REMARK   12  A    between atoms: _29  and  _31
REMARK   13  A    between atoms: _31  and  _32
REMARK   14  A    between atoms: _31  and  _34
REMARK   15  A    between atoms: _34  and  _35
REMARK   16  A    between atoms: _40  and  _42
REMARK   17  A    between atoms: _42  and  _43
REMARK   18  A    between atoms: _42  and  _45
REMARK   19  A    between atoms: _45  and  _46
REMARK   20  A    between atoms: _51  and  _53
REMARK   21  A    between atoms: _53  and  _54
REMARK   22  A    between atoms: _53  and  _56
REMARK   23  A    between atoms: _56  and  _57
REMARK   24  A    between atoms: _63  and  _65
REMARK   25  A    between atoms: _65  and  _66
REMARK   26  A    between atoms: _65  and  _68
REMARK   27  A    between atoms: _68  and  _69
REMARK   28  A    between atoms: _74  and  _76
REMARK   29  A    between atoms: _76  and  _77
REMARK   30  A    between atoms: _76  and  _79
REMARK   31  A    between atoms: _79  and  _80
REMARK   32  A    between atoms: _80  and  _81
REMARK   33  A    between atoms: _81  and  _82
REMARK   34  A    between atoms: _91  and  _93
REMARK   35  A    between atoms: _93  and  _94
REMARK   36  A    between atoms: _97  and  _99
REMARK   37  A    between atoms: _99  and  _100
REMARK   38  A    between atoms: _99  and  _102
REMARK   39  A    between atoms: _102  and  _103
REMARK   40  A    between atoms: _108  and  _110
REMARK   41  A    between atoms: _110  and  _111
REMARK   42  A    between atoms: _113  and  _115
REMARK   43  A    between atoms: _115  and  _116
REMARK   44  A    between atoms: _115  and  _118
REMARK   45  A    between atoms: _118  and  _119
REMARK   46  A    between atoms: _122  and  _124
REMARK   47  A    between atoms: _124  and  _125
REMARK   48  A    between atoms: _124  and  _127
REMARK   49  A    between atoms: _130  and  _132
REMARK   50  A    between atoms: _132  and  _133
REMARK   51  A    between atoms: _132  and  _135
REMARK   52  A    between atoms: _137  and  _139
REMARK   53  A    between atoms: _139  and  _140
REMARK   54  A    between atoms: _139  and  _142
REMARK   55  A    between atoms: _142  and  _143
REMARK   56  A    between atoms: _148  and  _150
REMARK   57  A    between atoms: _150  and  _151
REMARK   58  A    between atoms: _150  and  _153
REMARK   59  A    between atoms: _153  and  _154
REMARK   60  A    between atoms: _156  and  _158
REMARK   61  A    between atoms: _158  and  _159
REMARK   62  A    between atoms: _158  and  _161
REMARK   63  A    between atoms: _161  and  _162
REMARK   64  A    between atoms: _162  and  _163
REMARK   65  A    between atoms: _163  and  _164
REMARK   66  A    between atoms: _164  and  _165
REMARK   67  A    between atoms: _169  and  _171
REMARK   68  A    between atoms: _171  and  _172
REMARK   69  A    between atoms: _171  and  _174
REMARK   70  A    between atoms: _174  and  _175
REMARK   71  A    between atoms: _185  and  _187
REMARK   72  A    between atoms: _187  and  _188
REMARK   73  A    between atoms: _190  and  _192
REMARK   74  A    between atoms: _192  and  _193
REMARK   75  A    between atoms: _192  and  _195
REMARK   76  A    between atoms: _195  and  _196
REMARK   77  A    between atoms: _199  and  _201
REMARK   78  A    between atoms: _201  and  _202
REMARK   79  A    between atoms: _201  and  _204
REMARK   80  A    between atoms: _204  and  _205
REMARK   81  A    between atoms: _205  and  _206
REMARK   82  A    between atoms: _209  and  _211
REMARK   83  A    between atoms: _211  and  _212
REMARK   84  A    between atoms: _211  and  _214
REMARK   85  A    between atoms: _214  and  _215
REMARK   86  A    between atoms: _215  and  _216
REMARK   87  A    between atoms: _221  and  _223
REMARK   88  A    between atoms: _223  and  _224
REMARK   89  A    between atoms: _223  and  _226
REMARK   90  A    between atoms: _226  and  _227
REMARK   91  A    between atoms: _227  and  _228
REMARK   92  A    between atoms: _228  and  _229
REMARK   93  A    between atoms: _238  and  _240
REMARK   94  A    between atoms: _240  and  _241
REMARK   95  A    between atoms: _240  and  _243
REMARK   96  A    between atoms: _243  and  _244
REMARK   97  A    between atoms: _244  and  _245
REMARK   98  A    between atoms: _245  and  _246
REMARK   99  A    between atoms: _255  and  _257
REMARK  100  A    between atoms: _257  and  _258
REMARK  101  A    between atoms: _257  and  _260
REMARK  102  A    between atoms: _260  and  _261
REMARK                            x       y       z     vdW  Elec       q    Type
REMARK                         _______ _______ _______ _____ _____    ______ ____
ROOT
ATOM      1  CA  ASN A   3      14.586   0.813  19.397  0.00  0.00    +0.158 C 
ENDROOT
BRANCH   1   3
ATOM      2  C   CYS A   2      14.364   0.011  17.104  0.00  0.00    +0.242 C 
ATOM      3  N   ASN A   3      14.351   1.015  17.973  0.00  0.00    -0.297 N 
ATOM      4  H   ASN A   3      14.167   1.978  17.626  0.00  0.00    +0.150 HD
ATOM      5  O   CYS A   2      14.646  -1.150  17.410  0.00  0.00    -0.273 OA
BRANCH   2   6
ATOM      6  CA  CYS A   2      14.010   0.369  15.674  0.00  0.00    +0.160 C 
BRANCH   6   8
ATOM      7  C   VAL A   1      15.548  -0.061  13.831  0.00  0.00    +0.238 C 
ATOM      8  N   CYS A   2      14.718  -0.519  14.763  0.00  0.00    -0.297 N 
ATOM      9  H   CYS A   2      14.570  -1.545  14.844  0.00  0.00    +0.150 HD
ATOM     10  O   VAL A   1      15.699   1.138  13.595  0.00  0.00    -0.274 OA
BRANCH   7  11
ATOM     11  CA  VAL A   1      16.294  -1.115  13.017  0.00  0.00    +0.145 C 
BRANCH  11  12
ATOM     12  CB  VAL A   1      17.795  -1.134  13.398  0.00  0.00    +0.025 C 
ATOM     13  CG2 VAL A   1      17.989  -1.367  14.896  0.00  0.00    +0.002 C 
ATOM     14  CG1 VAL A   1      18.536  -2.183  12.586  0.00  0.00    +0.002 C 
ENDBRANCH  11  12
BRANCH  11  15
ATOM     15  N   VAL A   1      16.122  -0.796  11.613  0.00  0.00    -0.238 NA
ATOM     16  H   VAL A   1      16.630   0.022  11.220  0.00  0.00    +0.142 HD
ENDBRANCH  11  15
ENDBRANCH   7  11
ENDBRANCH   6   8
BRANCH   6  17
ATOM     17  CB  CYS A   2      12.495   0.256  15.485  0.00  0.00    +0.098 C 
ATOM     18  SG  CYS A   2      11.871   0.854  13.893  0.00  0.00    -0.080 S 
ENDBRANCH   6  17
ENDBRANCH   2   6
ENDBRANCH   1   3
BRANCH   1  19
ATOM     19  C   ASN A   3      14.037   2.004  20.171  0.00  0.00    +0.241 C 
ATOM     20  N   SER A   4      14.079   1.902  21.493  0.00  0.00    -0.295 N 
ATOM     21  H   SER A   4      14.367   0.996  21.915  0.00  0.00    +0.150 HD
ATOM     22  O   ASN A   3      13.559   2.977  19.579  0.00  0.00    -0.273 OA
BRANCH  20  23
ATOM     23  CA  SER A   4      13.739   3.003  22.373  0.00  0.00    +0.178 C 
BRANCH  23  24
ATOM     24  C   SER A   4      14.964   3.308  23.233  0.00  0.00    +0.243 C 
ATOM     25  N   LYS A   5      14.924   4.427  23.941  0.00  0.00    -0.298 N 
ATOM     26  H   LYS A   5      14.126   5.080  23.805  0.00  0.00    +0.150 HD
ATOM     27  O   SER A   4      15.938   2.555  23.229  0.00  0.00    -0.273 OA
BRANCH  25  28
ATOM     28  CA  LYS A   5      15.961   4.772  24.903  0.00  0.00    +0.137 C 
BRANCH  28  29
ATOM     29  C   LYS A   5      15.271   5.361  26.123  0.00  0.00    +0.227 C 
ATOM     30  O   LYS A   5      14.453   6.276  26.006  0.00  0.00    -0.286 OA
ENDBRANCH  28  29
BRANCH  28  31
ATOM     31  CB  LYS A   5      16.980   5.752  24.300  0.00  0.00    +0.028 C 
BRANCH  31  32
ATOM     32  CG  LYS A   5      18.208   5.998  25.189  0.00  0.00    -0.000 C 
BRANCH  32  33
ATOM     33  CD  LYS A   5      19.057   7.161  24.698  0.00  0.00    -0.024 C 
BRANCH  33  34
ATOM     34  CE  LYS A   5      20.301   6.673  23.983  0.00  0.00    -0.086 C 
BRANCH  34  35
ATOM     35  NZ  LYS A   5      21.067   7.812  23.400  0.00  0.00    +0.380 N 
ATOM     36  HZ1 LYS A   5      21.353   8.461  24.160  0.00  0.00    -0.089 HD
ATOM     37  HZ2 LYS A   5      21.913   7.448  22.917  0.00  0.00    -0.089 HD
ATOM     38  HZ3 LYS A   5      20.467   8.318  22.717  0.00  0.00    -0.089 HD
ENDBRANCH  34  35
ENDBRANCH  33  34
ENDBRANCH  32  33
ENDBRANCH  31  32
ENDBRANCH  28  31
ENDBRANCH  25  28
ENDBRANCH  23  24
BRANCH  23  39
ATOM     39  CB  SER A   4      12.526   2.643  23.236  0.00  0.00    +0.166 C 
BRANCH  39  40
ATOM     40  OG  SER A   4      12.748   1.449  23.968  0.00  0.00    -0.380 OA
ATOM     41  H   SER A   4      13.532   1.568  24.561  0.00  0.00    +0.211 HD
ENDBRANCH  39  40
ENDBRANCH  23  39
ENDBRANCH  20  23
ENDBRANCH   1  19
BRANCH   1  42
ATOM     42  CB  ASN A   3      16.090   0.621  19.684  0.00  0.00    +0.114 C 
BRANCH  42  43
ATOM     43  CG  ASN A   3      16.357  -0.162  20.975  0.00  0.00    +0.222 C 
ATOM     44  OD1 ASN A   3      15.441  -0.470  21.735  0.00  0.00    -0.275 OA
ATOM     45  ND2 ASN A   3      17.623  -0.478  21.221  0.00  0.00    -0.329 N 
ATOM     46 HD21 ASN A   3      17.869  -1.005  22.083  0.00  0.00    +0.145 HD
ATOM     47 HD22 ASN A   3      18.368  -0.198  20.552  0.00  0.00    +0.145 HD
ENDBRANCH  42  43
ENDBRANCH   1  42
TORSDOF 21
REMARK  Name = ../refined-set-2016/3oy8/3oy8_pocket.pdb
REMARK  102 active torsions:
REMARK  status: ('A' for Active; 'I' for Inactive)
REMARK    1  A    between atoms: _1  and  _3
REMARK    2  A    between atoms: _3  and  _4
REMARK    3  A    between atoms: _3  and  _6
REMARK    4  A    between atoms: _6  and  _7
REMARK    5  A    between atoms: _9  and  _11
REMARK    6  A    between atoms: _11  and  _12
REMARK    7  A    between atoms: _11  and  _14
REMARK    8  A    between atoms: _14  and  _15
REMARK    9  A    between atoms: _21  and  _23
REMARK   10  A    between atoms: _23  and  _24
REMARK   11  A    between atoms: _23  and  _26
REMARK   12  A    between atoms: _29  and  _31
REMARK   13  A    between atoms: _31  and  _32
REMARK   14  A    between atoms: _31  and  _34
REMARK   15  A    between atoms: _34  and  _35
REMARK   16  A    between atoms: _40  and  _42
REMARK   17  A    between atoms: _42  and  _43
REMARK   18  A    between atoms: _42  and  _45
REMARK   19  A    between atoms: _45  and  _46
REMARK   20  A    between atoms: _51  and  _53
REMARK   21  A    between atoms: _53  and  _54
REMARK   22  A    between atoms: _53  and  _56
REMARK   23  A    between atoms: _56  and  _57
REMARK   24  A    between atoms: _63  and  _65
REMARK   25  A    between atoms: _65  and  _66
REMARK   26  A    between atoms: _65  and  _68
REMARK   27  A    between atoms: _68  and  _69
REMARK   28  A    between atoms: _74  and  _76
REMARK   29  A    between atoms: _76  and  _77
REMARK   30  A    between atoms: _76  and  _79
REMARK   31  A    between atoms: _79  and  _80
REMARK   32  A    between atoms: _80  and  _81
REMARK   33  A    between atoms: _81  and  _82
REMARK   34  A    between atoms: _91  and  _93
REMARK   35  A    between atoms: _93  and  _94
REMARK   36  A    between atoms: _97  and  _99
REMARK   37  A    between atoms: _99  and  _100
REMARK   38  A    between atoms: _99  and  _102
REMARK   39  A    between atoms: _102  and  _103
REMARK   40  A    between atoms: _108  and  _110
REMARK   41  A    between atoms: _110  and  _111
REMARK   42  A    between atoms: _113  and  _115
REMARK   43  A    between atoms: _115  and  _116
REMARK   44  A    between atoms: _115  and  _118
REMARK   45  A    between atoms: _118  and  _119
REMARK   46  A    between atoms: _122  and  _124
REMARK   47  A    between atoms: _124  and  _125
REMARK   48  A    between atoms: _124  and  _127
REMARK   49  A    between atoms: _130  and  _132
REMARK   50  A    between atoms: _132  and  _133
REMARK   51  A    between atoms: _132  and  _135
REMARK   52  A    between atoms: _137  and  _139
REMARK   53  A    between atoms: _139  and  _140
REMARK   54  A    between atoms: _139  and  _142
REMARK   55  A    between atoms: _142  and  _143
REMARK   56  A    between atoms: _148  and  _150
REMARK   57  A    between atoms: _150  and  _151
REMARK   58  A    between atoms: _150  and  _153
REMARK   59  A    between atoms: _153  and  _154
REMARK   60  A    between atoms: _156  and  _158
REMARK   61  A    between atoms: _158  and  _159
REMARK   62  A    between atoms: _158  and  _161
REMARK   63  A    between atoms: _161  and  _162
REMARK   64  A    between atoms: _162  and  _163
REMARK   65  A    between atoms: _163  and  _164
REMARK   66  A    between atoms: _164  and  _165
REMARK   67  A    between atoms: _169  and  _171
REMARK   68  A    between atoms: _171  and  _172
REMARK   69  A    between atoms: _171  and  _174
REMARK   70  A    between atoms: _174  and  _175
REMARK   71  A    between atoms: _185  and  _187
REMARK   72  A    between atoms: _187  and  _188
REMARK   73  A    between atoms: _190  and  _192
REMARK   74  A    between atoms: _192  and  _193
REMARK   75  A    between atoms: _192  and  _195
REMARK   76  A    between atoms: _195  and  _196
REMARK   77  A    between atoms: _199  and  _201
REMARK   78  A    between atoms: _201  and  _202
REMARK   79  A    between atoms: _201  and  _204
REMARK   80  A    between atoms: _204  and  _205
REMARK   81  A    between atoms: _205  and  _206
REMARK   82  A    between atoms: _209  and  _211
REMARK   83  A    between atoms: _211  and  _212
REMARK   84  A    between atoms: _211  and  _214
REMARK   85  A    between atoms: _214  and  _215
REMARK   86  A    between atoms: _215  and  _216
REMARK   87  A    between atoms: _221  and  _223
REMARK   88  A    between atoms: _223  and  _224
REMARK   89  A    between atoms: _223  and  _226
REMARK   90  A    between atoms: _226  and  _227
REMARK   91  A    between atoms: _227  and  _228
REMARK   92  A    between atoms: _228  and  _229
REMARK   93  A    between atoms: _238  and  _240
REMARK   94  A    between atoms: _240  and  _241
REMARK   95  A    between atoms: _240  and  _243
REMARK   96  A    between atoms: _243  and  _244
REMARK   97  A    between atoms: _244  and  _245
REMARK   98  A    between atoms: _245  and  _246
REMARK   99  A    between atoms: _255  and  _257
REMARK  100  A    between atoms: _257  and  _258
REMARK  101  A    between atoms: _257  and  _260
REMARK  102  A    between atoms: _260  and  _261
REMARK                            x       y       z     vdW  Elec       q    Type
REMARK                         _______ _______ _______ _____ _____    ______ ____
ROOT
ATOM      1  CA  GLU A   4      15.996  -3.741  19.375  0.00  0.00    +0.149 C 
ENDROOT
BRANCH   1   2
ATOM      2  C   GLU A   4      14.957  -4.599  18.669  0.00  0.00    +0.241 C 
ATOM      3  O   GLU A   4      14.804  -5.778  18.986  0.00  0.00    -0.273 OA
ATOM      4  N   GLN A   5      14.252  -3.993  17.717  0.00  0.00    -0.297 N 
ATOM      5  H   GLN A   5      14.320  -2.959  17.631  0.00  0.00    +0.150 HD
BRANCH   4   6
ATOM      6  CA  GLN A   5      13.384  -4.718  16.784  0.00  0.00    +0.149 C 
BRANCH   6   7
ATOM      7  C   GLN A   5      13.796  -4.388  15.359  0.00  0.00    +0.241 C 
ATOM      8  O   GLN A   5      14.143  -3.237  15.054  0.00  0.00    -0.273 OA
ATOM      9  N   ARG A   6      13.768  -5.397  14.493  0.00  0.00    -0.298 N 
ATOM     10  H   ARG A   6      13.556  -6.355  14.838  0.00  0.00    +0.150 HD
BRANCH   9  11
ATOM     11  CA  ARG A   6      14.028  -5.195  13.065  0.00  0.00    +0.137 C 
BRANCH  11  12
ATOM     12  C   ARG A   6      12.764  -5.436  12.235  0.00  0.00    +0.227 C 
ATOM     13  O   ARG A   6      11.962  -6.328  12.541  0.00  0.00    -0.286 OA
ENDBRANCH  11  12
BRANCH  11  14
ATOM     14  CB  ARG A   6      15.174  -6.088  12.598  0.00  0.00    +0.031 C 
BRANCH  14  15
ATOM     15  CG  ARG A   6      16.544  -5.570  12.982  0.00  0.00    +0.045 C 
BRANCH  15  16
ATOM     16  CD  ARG A   6      17.563  -6.694  13.094  0.00  0.00    +0.174 C 
BRANCH  16  17
ATOM     17  NE  ARG A   6      18.932  -6.213  12.897  0.00  0.00    -0.265 N 
ATOM     18  CZ  ARG A   6      19.666  -5.614  13.832  0.00  0.00    +0.342 C 
ATOM     19  NH2 ARG A   6      19.172  -5.412  15.046  0.00  0.00    -0.292 N 
ATOM     20 HH21 ARG A   6      19.751  -4.943  15.772  0.00  0.00    +0.255 HD
ATOM     21 HH22 ARG A   6      18.206  -5.722  15.272  0.00  0.00    +0.255 HD
ATOM     22  NH1 ARG A   6      20.896  -5.209  13.554  0.00  0.00    -0.292 N 
ATOM     23 HH11 ARG A   6      21.467  -4.741  14.286  0.00  0.00    +0.255 HD
ATOM     24 HH12 ARG A   6      21.290  -5.359  12.603  0.00  0.00    +0.255 HD
ATOM     25  HE  ARG A   6      19.361  -6.349  11.960  0.00  0.00    +0.259 HD
ENDBRANCH  16  17
ENDBRANCH  15  16
ENDBRANCH  14  15
ENDBRANCH  11  14
ENDBRANCH   9  11
ENDBRANCH   6   7
BRANCH   6  26
ATOM     26  CB  GLN A   5      11.914  -4.345  16.983  0.00  0.00    +0.039 C 
BRANCH  26  27
ATOM     27  CG  GLN A   5      11.291  -4.927  18.240  0.00  0.00    +0.087 C 
BRANCH  27  28
ATOM     28  CD  GLN A   5       9.788  -4.702  18.333  0.00  0.00    +0.219 C 
ATOM     29  OE1 GLN A   5       9.182  -4.983  19.367  0.00  0.00    -0.275 OA
ATOM     30  NE2 GLN A   5       9.178  -4.203  17.255  0.00  0.00    -0.329 N 
ATOM     31 HE21 GLN A   5       8.151  -4.038  17.268  0.00  0.00    +0.145 HD
ATOM     32 HE22 GLN A   5       9.730  -3.980  16.402  0.00  0.00    +0.145 HD
ENDBRANCH  27  28
ENDBRANCH  26  27
ENDBRANCH   6  26
ENDBRANCH   4   6
ENDBRANCH   1   2
BRANCH   1  35
ATOM     33  C   THR A   3      15.024  -3.795  21.633  0.00  0.00    +0.243 C 
ATOM     34  O   THR A   3      13.932  -3.338  21.274  0.00  0.00    -0.273 OA
ATOM     35  N   GLU A   4      16.054  -3.989  20.811  0.00  0.00    -0.297 N 
ATOM     36  H   GLU A   4      16.947  -4.336  21.215  0.00  0.00    +0.150 HD
BRANCH  33  37
ATOM     37  CA  THR A   3      15.269  -4.171  23.091  0.00  0.00    +0.176 C 
BRANCH  37  39
ATOM     38  C   GLY A   2      16.125  -2.130  24.134  0.00  0.00    +0.243 C 
ATOM     39  N   THR A   3      15.139  -3.001  23.953  0.00  0.00    -0.295 N 
ATOM     40  H   THR A   3      14.237  -2.843  24.446  0.00  0.00    +0.150 HD
ATOM     41  O   GLY A   2      17.227  -2.234  23.591  0.00  0.00    -0.273 OA
BRANCH  38  42
ATOM     42  CA  GLY A   2      15.808  -0.954  25.040  0.00  0.00    +0.176 C 
BRANCH  42  45
ATOM     43  C   TRP A   1      17.887   0.260  25.384  0.00  0.00    +0.239 C 
ATOM     44  O   TRP A   1      18.274  -0.538  26.239  0.00  0.00    -0.274 OA
ATOM     45  N   GLY A   2      16.708   0.157  24.779  0.00  0.00    -0.296 N 
ATOM     46  H   GLY A   2      16.422   0.891  24.100  0.00  0.00    +0.150 HD
BRANCH  43  47
ATOM     47  CA  TRP A   1      18.770   1.433  24.953  0.00  0.00    +0.149 C 
BRANCH  47  48
ATOM     48  N   TRP A   1      19.407   2.062  26.105  0.00  0.00    -0.238 NA
ATOM     49  H   TRP A   1      20.445   2.064  26.165  0.00  0.00    +0.142 HD
ENDBRANCH  47  48
BRANCH  47  50
ATOM     50  CB  TRP A   1      19.820   0.917  23.973  0.00  0.00    +0.054 C 
BRANCH  50  51
ATOM     51  CG  TRP A   1      20.560   1.963  23.213  0.00  0.00    -0.002 A 
ATOM     52  CD1 TRP A   1      21.899   2.221  23.275  0.00  0.00    +0.068 A 
ATOM     53  NE1 TRP A   1      22.224   3.246  22.421  0.00  0.00    -0.352 N 
ATOM     54  HE1 TRP A   1      23.177   3.640  22.286  0.00  0.00    +0.166 HD
ATOM     55  CE2 TRP A   1      21.091   3.667  21.775  0.00  0.00    +0.056 A 
ATOM     56  CZ2 TRP A   1      20.918   4.675  20.817  0.00  0.00    +0.017 A 
ATOM     57  CH2 TRP A   1      19.646   4.884  20.340  0.00  0.00    +0.001 A 
ATOM     58  CZ3 TRP A   1      18.554   4.115  20.792  0.00  0.00    +0.000 A 
ATOM     59  CE3 TRP A   1      18.728   3.111  21.743  0.00  0.00    +0.001 A 
ATOM     60  CD2 TRP A   1      20.017   2.878  22.249  0.00  0.00    +0.013 A 
ENDBRANCH  50  51
ENDBRANCH  47  50
ENDBRANCH  43  47
ENDBRANCH  42  45
ENDBRANCH  38  42
ENDBRANCH  37  39
BRANCH  37  61
ATOM     61  CB  THR A   3      14.277  -5.274  23.510  0.00  0.00    +0.137 C 
ATOM     62  CG2 THR A   3      14.403  -6.497  22.603  0.00  0.00    +0.034 C 
BRANCH  61  63
ATOM     63  OG1 THR A   3      14.550  -5.658  24.860  0.00  0.00    -0.382 OA
ATOM     64  HG1 THR A   3      13.916  -6.367  25.135  0.00  0.00    +0.210 HD
ENDBRANCH  61  63
ENDBRANCH  37  61
ENDBRANCH  33  37
ENDBRANCH   1  35
BRANCH   1  65
ATOM     65  CB  GLU A   4      17.342  -4.058  18.748  0.00  0.00    +0.041 C 
BRANCH  65  66
ATOM     66  CG  GLU A   4      18.269  -2.892  18.595  0.00  0.00    +0.116 C 
BRANCH  66  67
ATOM     67  CD  GLU A   4      19.477  -3.244  17.753  0.00  0.00    +0.365 C 
ATOM     68  OE2 GLU A   4      20.386  -2.401  17.618  0.00  0.00    -0.246 OA
ATOM     69  OE1 GLU A   4      19.516  -4.369  17.225  0.00  0.00    -0.246 OA
ENDBRANCH  66  67
ENDBRANCH  65  66
ENDBRANCH   1  65
TORSDOF 26
REMARK  Name = ../refined-set-2016/3oy8/3oy8_pocket.pdb
REMARK  102 active torsions:
REMARK  status: ('A' for Active; 'I' for Inactive)
REMARK    1  A    between atoms: _1  and  _3
REMARK    2  A    between atoms: _3  and  _4
REMARK    3  A    between atoms: _3  and  _6
REMARK    4  A    between atoms: _6  and  _7
REMARK    5  A    between atoms: _9  and  _11
REMARK    6  A    between atoms: _11  and  _12
REMARK    7  A    between atoms: _11  and  _14
REMARK    8  A    between atoms: _14  and  _15
REMARK    9  A    between atoms: _21  and  _23
REMARK   10  A    between atoms: _23  and  _24
REMARK   11  A    between atoms: _23  and  _26
REMARK   12  A    between atoms: _29  and  _31
REMARK   13  A    between atoms: _31  and  _32
REMARK   14  A    between atoms: _31  and  _34
REMARK   15  A    between atoms: _34  and  _35
REMARK   16  A    between atoms: _40  and  _42
REMARK   17  A    between atoms: _42  and  _43
REMARK   18  A    between atoms: _42  and  _45
REMARK   19  A    between atoms: _45  and  _46
REMARK   20  A    between atoms: _51  and  _53
REMARK   21  A    between atoms: _53  and  _54
REMARK   22  A    between atoms: _53  and  _56
REMARK   23  A    between atoms: _56  and  _57
REMARK   24  A    between atoms: _63  and  _65
REMARK   25  A    between atoms: _65  and  _66
REMARK   26  A    between atoms: _65  and  _68
REMARK   27  A    between atoms: _68  and  _69
REMARK   28  A    between atoms: _74  and  _76
REMARK   29  A    between atoms: _76  and  _77
REMARK   30  A    between atoms: _76  and  _79
REMARK   31  A    between atoms: _79  and  _80
REMARK   32  A    between atoms: _80  and  _81
REMARK   33  A    between atoms: _81  and  _82
REMARK   34  A    between atoms: _91  and  _93
REMARK   35  A    between atoms: _93  and  _94
REMARK   36  A    between atoms: _97  and  _99
REMARK   37  A    between atoms: _99  and  _100
REMARK   38  A    between atoms: _99  and  _102
REMARK   39  A    between atoms: _102  and  _103
REMARK   40  A    between atoms: _108  and  _110
REMARK   41  A    between atoms: _110  and  _111
REMARK   42  A    between atoms: _113  and  _115
REMARK   43  A    between atoms: _115  and  _116
REMARK   44  A    between atoms: _115  and  _118
REMARK   45  A    between atoms: _118  and  _119
REMARK   46  A    between atoms: _122  and  _124
REMARK   47  A    between atoms: _124  and  _125
REMARK   48  A    between atoms: _124  and  _127
REMARK   49  A    between atoms: _130  and  _132
REMARK   50  A    between atoms: _132  and  _133
REMARK   51  A    between atoms: _132  and  _135
REMARK   52  A    between atoms: _137  and  _139
REMARK   53  A    between atoms: _139  and  _140
REMARK   54  A    between atoms: _139  and  _142
REMARK   55  A    between atoms: _142  and  _143
REMARK   56  A    between atoms: _148  and  _150
REMARK   57  A    between atoms: _150  and  _151
REMARK   58  A    between atoms: _150  and  _153
REMARK   59  A    between atoms: _153  and  _154
REMARK   60  A    between atoms: _156  and  _158
REMARK   61  A    between atoms: _158  and  _159
REMARK   62  A    between atoms: _158  and  _161
REMARK   63  A    between atoms: _161  and  _162
REMARK   64  A    between atoms: _162  and  _163
REMARK   65  A    between atoms: _163  and  _164
REMARK   66  A    between atoms: _164  and  _165
REMARK   67  A    between atoms: _169  and  _171
REMARK   68  A    between atoms: _171  and  _172
REMARK   69  A    between atoms: _171  and  _174
REMARK   70  A    between atoms: _174  and  _175
REMARK   71  A    between atoms: _185  and  _187
REMARK   72  A    between atoms: _187  and  _188
REMARK   73  A    between atoms: _190  and  _192
REMARK   74  A    between atoms: _192  and  _193
REMARK   75  A    between atoms: _192  and  _195
REMARK   76  A    between atoms: _195  and  _196
REMARK   77  A    between atoms: _199  and  _201
REMARK   78  A    between atoms: _201  and  _202
REMARK   79  A    between atoms: _201  and  _204
REMARK   80  A    between atoms: _204  and  _205
REMARK   81  A    between atoms: _205  and  _206
REMARK   82  A    between atoms: _209  and  _211
REMARK   83  A    between atoms: _211  and  _212
REMARK   84  A    between atoms: _211  and  _214
REMARK   85  A    between atoms: _214  and  _215
REMARK   86  A    between atoms: _215  and  _216
REMARK   87  A    between atoms: _221  and  _223
REMARK   88  A    between atoms: _223  and  _224
REMARK   89  A    between atoms: _223  and  _226
REMARK   90  A    between atoms: _226  and  _227
REMARK   91  A    between atoms: _227  and  _228
REMARK   92  A    between atoms: _228  and  _229
REMARK   93  A    between atoms: _238  and  _240
REMARK   94  A    between atoms: _240  and  _241
REMARK   95  A    between atoms: _240  and  _243
REMARK   96  A    between atoms: _243  and  _244
REMARK   97  A    between atoms: _244  and  _245
REMARK   98  A    between atoms: _245  and  _246
REMARK   99  A    between atoms: _255  and  _257
REMARK  100  A    between atoms: _257  and  _258
REMARK  101  A    between atoms: _257  and  _260
REMARK  102  A    between atoms: _260  and  _261
REMARK                            x       y       z     vdW  Elec       q    Type
REMARK                         _______ _______ _______ _____ _____    ______ ____
ROOT
ATOM      1  NE  ARG A   1      10.272  -1.555  23.461  0.00  0.00    -0.265 N 
ATOM      2  HE  ARG A   1       9.408  -2.134  23.451  0.00  0.00    +0.259 HD
ATOM      3  CZ  ARG A   1      11.313  -1.981  22.752  0.00  0.00    +0.342 C 
ATOM      4  NH2 ARG A   1      12.441  -1.277  22.715  0.00  0.00    -0.292 N 
ATOM      5 HH21 ARG A   1      12.515  -0.384  23.244  0.00  0.00    +0.255 HD
ATOM      6 HH22 ARG A   1      13.249  -1.619  22.157  0.00  0.00    +0.255 HD
ATOM      7  NH1 ARG A   1      11.221  -3.114  22.071  0.00  0.00    -0.292 N 
ATOM      8 HH11 ARG A   1      10.339  -3.664  22.093  0.00  0.00    +0.255 HD
ATOM      9 HH12 ARG A   1      12.031  -3.453  21.514  0.00  0.00    +0.255 HD
ENDROOT
BRANCH   1  10
ATOM     10  CD  ARG A   1      10.261  -0.333  24.250  0.00  0.00    +0.174 C 
BRANCH  10  11
ATOM     11  CG  ARG A   1       8.889  -0.009  24.760  0.00  0.00    +0.045 C 
BRANCH  11  12
ATOM     12  CB  ARG A   1       8.925   1.253  25.576  0.00  0.00    +0.029 C 
BRANCH  12  13
ATOM     13  CA  ARG A   1       7.543   1.839  25.856  0.00  0.00    +0.133 C 
BRANCH  13  14
ATOM     14  N   ARG A   1       6.965   2.374  24.622  0.00  0.00    -0.239 NA
ATOM     15  H   ARG A   1       7.607   2.733  23.887  0.00  0.00    +0.142 HD
ENDBRANCH  13  14
BRANCH  13  16
ATOM     16  C   ARG A   1       7.664   2.885  26.952  0.00  0.00    +0.224 C 
ATOM     17  O   ARG A   1       7.883   2.553  28.121  0.00  0.00    -0.287 OA
ENDBRANCH  13  16
ENDBRANCH  12  13
ENDBRANCH  11  12
ENDBRANCH  10  11
ENDBRANCH   1  10
TORSDOF 6
REMARK  Name = ../refined-set-2016/3oy8/3oy8_pocket.pdb
REMARK  102 active torsions:
REMARK  status: ('A' for Active; 'I' for Inactive)
REMARK    1  A    between atoms: _1  and  _3
REMARK    2  A    between atoms: _3  and  _4
REMARK    3  A    between atoms: _3  and  _6
REMARK    4  A    between atoms: _6  and  _7
REMARK    5  A    between atoms: _9  and  _11
REMARK    6  A    between atoms: _11  and  _12
REMARK    7  A    between atoms: _11  and  _14
REMARK    8  A    between atoms: _14  and  _15
REMARK    9  A    between atoms: _21  and  _23
REMARK   10  A    between atoms: _23  and  _24
REMARK   11  A    between atoms: _23  and  _26
REMARK   12  A    between atoms: _29  and  _31
REMARK   13  A    between atoms: _31  and  _32
REMARK   14  A    between atoms: _31  and  _34
REMARK   15  A    between atoms: _34  and  _35
REMARK   16  A    between atoms: _40  and  _42
REMARK   17  A    between atoms: _42  and  _43
REMARK   18  A    between atoms: _42  and  _45
REMARK   19  A    between atoms: _45  and  _46
REMARK   20  A    between atoms: _51  and  _53
REMARK   21  A    between atoms: _53  and  _54
REMARK   22  A    between atoms: _53  and  _56
REMARK   23  A    between atoms: _56  and  _57
REMARK   24  A    between atoms: _63  and  _65
REMARK   25  A    between atoms: _65  and  _66
REMARK   26  A    between atoms: _65  and  _68
REMARK   27  A    between atoms: _68  and  _69
REMARK   28  A    between atoms: _74  and  _76
REMARK   29  A    between atoms: _76  and  _77
REMARK   30  A    between atoms: _76  and  _79
REMARK   31  A    between atoms: _79  and  _80
REMARK   32  A    between atoms: _80  and  _81
REMARK   33  A    between atoms: _81  and  _82
REMARK   34  A    between atoms: _91  and  _93
REMARK   35  A    between atoms: _93  and  _94
REMARK   36  A    between atoms: _97  and  _99
REMARK   37  A    between atoms: _99  and  _100
REMARK   38  A    between atoms: _99  and  _102
REMARK   39  A    between atoms: _102  and  _103
REMARK   40  A    between atoms: _108  and  _110
REMARK   41  A    between atoms: _110  and  _111
REMARK   42  A    between atoms: _113  and  _115
REMARK   43  A    between atoms: _115  and  _116
REMARK   44  A    between atoms: _115  and  _118
REMARK   45  A    between atoms: _118  and  _119
REMARK   46  A    between atoms: _122  and  _124
REMARK   47  A    between atoms: _124  and  _125
REMARK   48  A    between atoms: _124  and  _127
REMARK   49  A    between atoms: _130  and  _132
REMARK   50  A    between atoms: _132  and  _133
REMARK   51  A    between atoms: _132  and  _135
REMARK   52  A    between atoms: _137  and  _139
REMARK   53  A    between atoms: _139  and  _140
REMARK   54  A    between atoms: _139  and  _142
REMARK   55  A    between atoms: _142  and  _143
REMARK   56  A    between atoms: _148  and  _150
REMARK   57  A    between atoms: _150  and  _151
REMARK   58  A    between atoms: _150  and  _153
REMARK   59  A    between atoms: _153  and  _154
REMARK   60  A    between atoms: _156  and  _158
REMARK   61  A    between atoms: _158  and  _159
REMARK   62  A    between atoms: _158  and  _161
REMARK   63  A    between atoms: _161  and  _162
REMARK   64  A    between atoms: _162  and  _163
REMARK   65  A    between atoms: _163  and  _164
REMARK   66  A    between atoms: _164  and  _165
REMARK   67  A    between atoms: _169  and  _171
REMARK   68  A    between atoms: _171  and  _172
REMARK   69  A    between atoms: _171  and  _174
REMARK   70  A    between atoms: _174  and  _175
REMARK   71  A    between atoms: _185  and  _187
REMARK   72  A    between atoms: _187  and  _188
REMARK   73  A    between atoms: _190  and  _192
REMARK   74  A    between atoms: _192  and  _193
REMARK   75  A    between atoms: _192  and  _195
REMARK   76  A    between atoms: _195  and  _196
REMARK   77  A    between atoms: _199  and  _201
REMARK   78  A    between atoms: _201  and  _202
REMARK   79  A    between atoms: _201  and  _204
REMARK   80  A    between atoms: _204  and  _205
REMARK   81  A    between atoms: _205  and  _206
REMARK   82  A    between atoms: _209  and  _211
REMARK   83  A    between atoms: _211  and  _212
REMARK   84  A    between atoms: _211  and  _214
REMARK   85  A    between atoms: _214  and  _215
REMARK   86  A    between atoms: _215  and  _216
REMARK   87  A    between atoms: _221  and  _223
REMARK   88  A    between atoms: _223  and  _224
REMARK   89  A    between atoms: _223  and  _226
REMARK   90  A    between atoms: _226  and  _227
REMARK   91  A    between atoms: _227  and  _228
REMARK   92  A    between atoms: _228  and  _229
REMARK   93  A    between atoms: _238  and  _240
REMARK   94  A    between atoms: _240  and  _241
REMARK   95  A    between atoms: _240  and  _243
REMARK   96  A    between atoms: _243  and  _244
REMARK   97  A    between atoms: _244  and  _245
REMARK   98  A    between atoms: _245  and  _246
REMARK   99  A    between atoms: _255  and  _257
REMARK  100  A    between atoms: _257  and  _258
REMARK  101  A    between atoms: _257  and  _260
REMARK  102  A    between atoms: _260  and  _261
REMARK                            x       y       z     vdW  Elec       q    Type
REMARK                         _______ _______ _______ _____ _____    ______ ____
ROOT
ATOM      1  CA  ASP A   1      21.211  12.291  11.857  0.00  0.00    +0.144 C 
ENDROOT
BRANCH   1   2
ATOM      2  N   ASP A   1      19.767  12.474  11.934  0.00  0.00    -0.239 NA
ATOM      3  H   ASP A   1      19.145  11.753  11.515  0.00  0.00    +0.142 HD
ENDBRANCH   1   2
BRANCH   1   4
ATOM      4  C   ASP A   1      21.559  11.395  10.675  0.00  0.00    +0.225 C 
ATOM      5  O   ASP A   1      20.720  10.623  10.202  0.00  0.00    -0.287 OA
ENDBRANCH   1   4
BRANCH   1   6
ATOM      6  CB  ASP A   1      21.745  11.679  13.157  0.00  0.00    +0.139 C 
BRANCH   6   7
ATOM      7  CG  ASP A   1      23.249  11.853  13.317  0.00  0.00    +0.367 C 
ATOM      8  OD2 ASP A   1      23.844  11.104  14.122  0.00  0.00    -0.246 OA
ATOM      9  OD1 ASP A   1      23.836  12.735  12.643  0.00  0.00    -0.246 OA
ENDBRANCH   6   7
ENDBRANCH   1   6
TORSDOF 4
REMARK  Name = ../refined-set-2016/3oy8/3oy8_pocket.pdb
REMARK  102 active torsions:
REMARK  status: ('A' for Active; 'I' for Inactive)
REMARK    1  A    between atoms: _1  and  _3
REMARK    2  A    between atoms: _3  and  _4
REMARK    3  A    between atoms: _3  and  _6
REMARK    4  A    between atoms: _6  and  _7
REMARK    5  A    between atoms: _9  and  _11
REMARK    6  A    between atoms: _11  and  _12
REMARK    7  A    between atoms: _11  and  _14
REMARK    8  A    between atoms: _14  and  _15
REMARK    9  A    between atoms: _21  and  _23
REMARK   10  A    between atoms: _23  and  _24
REMARK   11  A    between atoms: _23  and  _26
REMARK   12  A    between atoms: _29  and  _31
REMARK   13  A    between atoms: _31  and  _32
REMARK   14  A    between atoms: _31  and  _34
REMARK   15  A    between atoms: _34  and  _35
REMARK   16  A    between atoms: _40  and  _42
REMARK   17  A    between atoms: _42  and  _43
REMARK   18  A    between atoms: _42  and  _45
REMARK   19  A    between atoms: _45  and  _46
REMARK   20  A    between atoms: _51  and  _53
REMARK   21  A    between atoms: _53  and  _54
REMARK   22  A    between atoms: _53  and  _56
REMARK   23  A    between atoms: _56  and  _57
REMARK   24  A    between atoms: _63  and  _65
REMARK   25  A    between atoms: _65  and  _66
REMARK   26  A    between atoms: _65  and  _68
REMARK   27  A    between atoms: _68  and  _69
REMARK   28  A    between atoms: _74  and  _76
REMARK   29  A    between atoms: _76  and  _77
REMARK   30  A    between atoms: _76  and  _79
REMARK   31  A    between atoms: _79  and  _80
REMARK   32  A    between atoms: _80  and  _81
REMARK   33  A    between atoms: _81  and  _82
REMARK   34  A    between atoms: _91  and  _93
REMARK   35  A    between atoms: _93  and  _94
REMARK   36  A    between atoms: _97  and  _99
REMARK   37  A    between atoms: _99  and  _100
REMARK   38  A    between atoms: _99  and  _102
REMARK   39  A    between atoms: _102  and  _103
REMARK   40  A    between atoms: _108  and  _110
REMARK   41  A    between atoms: _110  and  _111
REMARK   42  A    between atoms: _113  and  _115
REMARK   43  A    between atoms: _115  and  _116
REMARK   44  A    between atoms: _115  and  _118
REMARK   45  A    between atoms: _118  and  _119
REMARK   46  A    between atoms: _122  and  _124
REMARK   47  A    between atoms: _124  and  _125
REMARK   48  A    between atoms: _124  and  _127
REMARK   49  A    between atoms: _130  and  _132
REMARK   50  A    between atoms: _132  and  _133
REMARK   51  A    between atoms: _132  and  _135
REMARK   52  A    between atoms: _137  and  _139
REMARK   53  A    between atoms: _139  and  _140
REMARK   54  A    between atoms: _139  and  _142
REMARK   55  A    between atoms: _142  and  _143
REMARK   56  A    between atoms: _148  and  _150
REMARK   57  A    between atoms: _150  and  _151
REMARK   58  A    between atoms: _150  and  _153
REMARK   59  A    between atoms: _153  and  _154
REMARK   60  A    between atoms: _156  and  _158
REMARK   61  A    between atoms: _158  and  _159
REMARK   62  A    between atoms: _158  and  _161
REMARK   63  A    between atoms: _161  and  _162
REMARK   64  A    between atoms: _162  and  _163
REMARK   65  A    between atoms: _163  and  _164
REMARK   66  A    between atoms: _164  and  _165
REMARK   67  A    between atoms: _169  and  _171
REMARK   68  A    between atoms: _171  and  _172
REMARK   69  A    between atoms: _171  and  _174
REMARK   70  A    between atoms: _174  and  _175
REMARK   71  A    between atoms: _185  and  _187
REMARK   72  A    between atoms: _187  and  _188
REMARK   73  A    between atoms: _190  and  _192
REMARK   74  A    between atoms: _192  and  _193
REMARK   75  A    between atoms: _192  and  _195
REMARK   76  A    between atoms: _195  and  _196
REMARK   77  A    between atoms: _199  and  _201
REMARK   78  A    between atoms: _201  and  _202
REMARK   79  A    between atoms: _201  and  _204
REMARK   80  A    between atoms: _204  and  _205
REMARK   81  A    between atoms: _205  and  _206
REMARK   82  A    between atoms: _209  and  _211
REMARK   83  A    between atoms: _211  and  _212
REMARK   84  A    between atoms: _211  and  _214
REMARK   85  A    between atoms: _214  and  _215
REMARK   86  A    between atoms: _215  and  _216
REMARK   87  A    between atoms: _221  and  _223
REMARK   88  A    between atoms: _223  and  _224
REMARK   89  A    between atoms: _223  and  _226
REMARK   90  A    between atoms: _226  and  _227
REMARK   91  A    between atoms: _227  and  _228
REMARK   92  A    between atoms: _228  and  _229
REMARK   93  A    between atoms: _238  and  _240
REMARK   94  A    between atoms: _240  and  _241
REMARK   95  A    between atoms: _240  and  _243
REMARK   96  A    between atoms: _243  and  _244
REMARK   97  A    between atoms: _244  and  _245
REMARK   98  A    between atoms: _245  and  _246
REMARK   99  A    between atoms: _255  and  _257
REMARK  100  A    between atoms: _257  and  _258
REMARK  101  A    between atoms: _257  and  _260
REMARK  102  A    between atoms: _260  and  _261
REMARK                            x       y       z     vdW  Elec       q    Type
REMARK                         _______ _______ _______ _____ _____    ______ ____
ROOT
ATOM      1  O   HOH     1      23.097   4.084  14.109  0.00  0.00    +0.000 OA
ENDROOT
TORSDOF 0
REMARK  Name = ../refined-set-2016/3oy8/3oy8_pocket.pdb
REMARK  102 active torsions:
REMARK  status: ('A' for Active; 'I' for Inactive)
REMARK    1  A    between atoms: _1  and  _3
REMARK    2  A    between atoms: _3  and  _4
REMARK    3  A    between atoms: _3  and  _6
REMARK    4  A    between atoms: _6  and  _7
REMARK    5  A    between atoms: _9  and  _11
REMARK    6  A    between atoms: _11  and  _12
REMARK    7  A    between atoms: _11  and  _14
REMARK    8  A    between atoms: _14  and  _15
REMARK    9  A    between atoms: _21  and  _23
REMARK   10  A    between atoms: _23  and  _24
REMARK   11  A    between atoms: _23  and  _26
REMARK   12  A    between atoms: _29  and  _31
REMARK   13  A    between atoms: _31  and  _32
REMARK   14  A    between atoms: _31  and  _34
REMARK   15  A    between atoms: _34  and  _35
REMARK   16  A    between atoms: _40  and  _42
REMARK   17  A    between atoms: _42  and  _43
REMARK   18  A    between atoms: _42  and  _45
REMARK   19  A    between atoms: _45  and  _46
REMARK   20  A    between atoms: _51  and  _53
REMARK   21  A    between atoms: _53  and  _54
REMARK   22  A    between atoms: _53  and  _56
REMARK   23  A    between atoms: _56  and  _57
REMARK   24  A    between atoms: _63  and  _65
REMARK   25  A    between atoms: _65  and  _66
REMARK   26  A    between atoms: _65  and  _68
REMARK   27  A    between atoms: _68  and  _69
REMARK   28  A    between atoms: _74  and  _76
REMARK   29  A    between atoms: _76  and  _77
REMARK   30  A    between atoms: _76  and  _79
REMARK   31  A    between atoms: _79  and  _80
REMARK   32  A    between atoms: _80  and  _81
REMARK   33  A    between atoms: _81  and  _82
REMARK   34  A    between atoms: _91  and  _93
REMARK   35  A    between atoms: _93  and  _94
REMARK   36  A    between atoms: _97  and  _99
REMARK   37  A    between atoms: _99  and  _100
REMARK   38  A    between atoms: _99  and  _102
REMARK   39  A    between atoms: _102  and  _103
REMARK   40  A    between atoms: _108  and  _110
REMARK   41  A    between atoms: _110  and  _111
REMARK   42  A    between atoms: _113  and  _115
REMARK   43  A    between atoms: _115  and  _116
REMARK   44  A    between atoms: _115  and  _118
REMARK   45  A    between atoms: _118  and  _119
REMARK   46  A    between atoms: _122  and  _124
REMARK   47  A    between atoms: _124  and  _125
REMARK   48  A    between atoms: _124  and  _127
REMARK   49  A    between atoms: _130  and  _132
REMARK   50  A    between atoms: _132  and  _133
REMARK   51  A    between atoms: _132  and  _135
REMARK   52  A    between atoms: _137  and  _139
REMARK   53  A    between atoms: _139  and  _140
REMARK   54  A    between atoms: _139  and  _142
REMARK   55  A    between atoms: _142  and  _143
REMARK   56  A    between atoms: _148  and  _150
REMARK   57  A    between atoms: _150  and  _151
REMARK   58  A    between atoms: _150  and  _153
REMARK   59  A    between atoms: _153  and  _154
REMARK   60  A    between atoms: _156  and  _158
REMARK   61  A    between atoms: _158  and  _159
REMARK   62  A    between atoms: _158  and  _161
REMARK   63  A    between atoms: _161  and  _162
REMARK   64  A    between atoms: _162  and  _163
REMARK   65  A    between atoms: _163  and  _164
REMARK   66  A    between atoms: _164  and  _165
REMARK   67  A    between atoms: _169  and  _171
REMARK   68  A    between atoms: _171  and  _172
REMARK   69  A    between atoms: _171  and  _174
REMARK   70  A    between atoms: _174  and  _175
REMARK   71  A    between atoms: _185  and  _187
REMARK   72  A    between atoms: _187  and  _188
REMARK   73  A    between atoms: _190  and  _192
REMARK   74  A    between atoms: _192  and  _193
REMARK   75  A    between atoms: _192  and  _195
REMARK   76  A    between atoms: _195  and  _196
REMARK   77  A    between atoms: _199  and  _201
REMARK   78  A    between atoms: _201  and  _202
REMARK   79  A    between atoms: _201  and  _204
REMARK   80  A    between atoms: _204  and  _205
REMARK   81  A    between atoms: _205  and  _206
REMARK   82  A    between atoms: _209  and  _211
REMARK   83  A    between atoms: _211  and  _212
REMARK   84  A    between atoms: _211  and  _214
REMARK   85  A    between atoms: _214  and  _215
REMARK   86  A    between atoms: _215  and  _216
REMARK   87  A    between atoms: _221  and  _223
REMARK   88  A    between atoms: _223  and  _224
REMARK   89  A    between atoms: _223  and  _226
REMARK   90  A    between atoms: _226  and  _227
REMARK   91  A    between atoms: _227  and  _228
REMARK   92  A    between atoms: _228  and  _229
REMARK   93  A    between atoms: _238  and  _240
REMARK   94  A    between atoms: _240  and  _241
REMARK   95  A    between atoms: _240  and  _243
REMARK   96  A    between atoms: _243  and  _244
REMARK   97  A    between atoms: _244  and  _245
REMARK   98  A    between atoms: _245  and  _246
REMARK   99  A    between atoms: _255  and  _257
REMARK  100  A    between atoms: _257  and  _258
REMARK  101  A    between atoms: _257  and  _260
REMARK  102  A    between atoms: _260  and  _261
REMARK                            x       y       z     vdW  Elec       q    Type
REMARK                         _______ _______ _______ _____ _____    ______ ____
ROOT
ATOM      1  O   HOH     1      20.980   8.200  17.716  0.00  0.00    +0.000 OA
ENDROOT
TORSDOF 0
REMARK  Name = ../refined-set-2016/3oy8/3oy8_pocket.pdb
REMARK  102 active torsions:
REMARK  status: ('A' for Active; 'I' for Inactive)
REMARK    1  A    between atoms: _1  and  _3
REMARK    2  A    between atoms: _3  and  _4
REMARK    3  A    between atoms: _3  and  _6
REMARK    4  A    between atoms: _6  and  _7
REMARK    5  A    between atoms: _9  and  _11
REMARK    6  A    between atoms: _11  and  _12
REMARK    7  A    between atoms: _11  and  _14
REMARK    8  A    between atoms: _14  and  _15
REMARK    9  A    between atoms: _21  and  _23
REMARK   10  A    between atoms: _23  and  _24
REMARK   11  A    between atoms: _23  and  _26
REMARK   12  A    between atoms: _29  and  _31
REMARK   13  A    between atoms: _31  and  _32
REMARK   14  A    between atoms: _31  and  _34
REMARK   15  A    between atoms: _34  and  _35
REMARK   16  A    between atoms: _40  and  _42
REMARK   17  A    between atoms: _42  and  _43
REMARK   18  A    between atoms: _42  and  _45
REMARK   19  A    between atoms: _45  and  _46
REMARK   20  A    between atoms: _51  and  _53
REMARK   21  A    between atoms: _53  and  _54
REMARK   22  A    between atoms: _53  and  _56
REMARK   23  A    between atoms: _56  and  _57
REMARK   24  A    between atoms: _63  and  _65
REMARK   25  A    between atoms: _65  and  _66
REMARK   26  A    between atoms: _65  and  _68
REMARK   27  A    between atoms: _68  and  _69
REMARK   28  A    between atoms: _74  and  _76
REMARK   29  A    between atoms: _76  and  _77
REMARK   30  A    between atoms: _76  and  _79
REMARK   31  A    between atoms: _79  and  _80
REMARK   32  A    between atoms: _80  and  _81
REMARK   33  A    between atoms: _81  and  _82
REMARK   34  A    between atoms: _91  and  _93
REMARK   35  A    between atoms: _93  and  _94
REMARK   36  A    between atoms: _97  and  _99
REMARK   37  A    between atoms: _99  and  _100
REMARK   38  A    between atoms: _99  and  _102
REMARK   39  A    between atoms: _102  and  _103
REMARK   40  A    between atoms: _108  and  _110
REMARK   41  A    between atoms: _110  and  _111
REMARK   42  A    between atoms: _113  and  _115
REMARK   43  A    between atoms: _115  and  _116
REMARK   44  A    between atoms: _115  and  _118
REMARK   45  A    between atoms: _118  and  _119
REMARK   46  A    between atoms: _122  and  _124
REMARK   47  A    between atoms: _124  and  _125
REMARK   48  A    between atoms: _124  and  _127
REMARK   49  A    between atoms: _130  and  _132
REMARK   50  A    between atoms: _132  and  _133
REMARK   51  A    between atoms: _132  and  _135
REMARK   52  A    between atoms: _137  and  _139
REMARK   53  A    between atoms: _139  and  _140
REMARK   54  A    between atoms: _139  and  _142
REMARK   55  A    between atoms: _142  and  _143
REMARK   56  A    between atoms: _148  and  _150
REMARK   57  A    between atoms: _150  and  _151
REMARK   58  A    between atoms: _150  and  _153
REMARK   59  A    between atoms: _153  and  _154
REMARK   60  A    between atoms: _156  and  _158
REMARK   61  A    between atoms: _158  and  _159
REMARK   62  A    between atoms: _158  and  _161
REMARK   63  A    between atoms: _161  and  _162
REMARK   64  A    between atoms: _162  and  _163
REMARK   65  A    between atoms: _163  and  _164
REMARK   66  A    between atoms: _164  and  _165
REMARK   67  A    between atoms: _169  and  _171
REMARK   68  A    between atoms: _171  and  _172
REMARK   69  A    between atoms: _171  and  _174
REMARK   70  A    between atoms: _174  and  _175
REMARK   71  A    between atoms: _185  and  _187
REMARK   72  A    between atoms: _187  and  _188
REMARK   73  A    between atoms: _190  and  _192
REMARK   74  A    between atoms: _192  and  _193
REMARK   75  A    between atoms: _192  and  _195
REMARK   76  A    between atoms: _195  and  _196
REMARK   77  A    between atoms: _199  and  _201
REMARK   78  A    between atoms: _201  and  _202
REMARK   79  A    between atoms: _201  and  _204
REMARK   80  A    between atoms: _204  and  _205
REMARK   81  A    between atoms: _205  and  _206
REMARK   82  A    between atoms: _209  and  _211
REMARK   83  A    between atoms: _211  and  _212
REMARK   84  A    between atoms: _211  and  _214
REMARK   85  A    between atoms: _214  and  _215
REMARK   86  A    between atoms: _215  and  _216
REMARK   87  A    between atoms: _221  and  _223
REMARK   88  A    between atoms: _223  and  _224
REMARK   89  A    between atoms: _223  and  _226
REMARK   90  A    between atoms: _226  and  _227
REMARK   91  A    between atoms: _227  and  _228
REMARK   92  A    between atoms: _228  and  _229
REMARK   93  A    between atoms: _238  and  _240
REMARK   94  A    between atoms: _240  and  _241
REMARK   95  A    between atoms: _240  and  _243
REMARK   96  A    between atoms: _243  and  _244
REMARK   97  A    between atoms: _244  and  _245
REMARK   98  A    between atoms: _245  and  _246
REMARK   99  A    between atoms: _255  and  _257
REMARK  100  A    between atoms: _257  and  _258
REMARK  101  A    between atoms: _257  and  _260
REMARK  102  A    between atoms: _260  and  _261
REMARK                            x       y       z     vdW  Elec       q    Type
REMARK                         _______ _______ _______ _____ _____    ______ ____
ROOT
ATOM      1  O   HOH     1      18.431  -5.209  21.972  0.00  0.00    +0.000 OA
ENDROOT
TORSDOF 0
REMARK  Name = ../refined-set-2016/3oy8/3oy8_pocket.pdb
REMARK  102 active torsions:
REMARK  status: ('A' for Active; 'I' for Inactive)
REMARK    1  A    between atoms: _1  and  _3
REMARK    2  A    between atoms: _3  and  _4
REMARK    3  A    between atoms: _3  and  _6
REMARK    4  A    between atoms: _6  and  _7
REMARK    5  A    between atoms: _9  and  _11
REMARK    6  A    between atoms: _11  and  _12
REMARK    7  A    between atoms: _11  and  _14
REMARK    8  A    between atoms: _14  and  _15
REMARK    9  A    between atoms: _21  and  _23
REMARK   10  A    between atoms: _23  and  _24
REMARK   11  A    between atoms: _23  and  _26
REMARK   12  A    between atoms: _29  and  _31
REMARK   13  A    between atoms: _31  and  _32
REMARK   14  A    between atoms: _31  and  _34
REMARK   15  A    between atoms: _34  and  _35
REMARK   16  A    between atoms: _40  and  _42
REMARK   17  A    between atoms: _42  and  _43
REMARK   18  A    between atoms: _42  and  _45
REMARK   19  A    between atoms: _45  and  _46
REMARK   20  A    between atoms: _51  and  _53
REMARK   21  A    between atoms: _53  and  _54
REMARK   22  A    between atoms: _53  and  _56
REMARK   23  A    between atoms: _56  and  _57
REMARK   24  A    between atoms: _63  and  _65
REMARK   25  A    between atoms: _65  and  _66
REMARK   26  A    between atoms: _65  and  _68
REMARK   27  A    between atoms: _68  and  _69
REMARK   28  A    between atoms: _74  and  _76
REMARK   29  A    between atoms: _76  and  _77
REMARK   30  A    between atoms: _76  and  _79
REMARK   31  A    between atoms: _79  and  _80
REMARK   32  A    between atoms: _80  and  _81
REMARK   33  A    between atoms: _81  and  _82
REMARK   34  A    between atoms: _91  and  _93
REMARK   35  A    between atoms: _93  and  _94
REMARK   36  A    between atoms: _97  and  _99
REMARK   37  A    between atoms: _99  and  _100
REMARK   38  A    between atoms: _99  and  _102
REMARK   39  A    between atoms: _102  and  _103
REMARK   40  A    between atoms: _108  and  _110
REMARK   41  A    between atoms: _110  and  _111
REMARK   42  A    between atoms: _113  and  _115
REMARK   43  A    between atoms: _115  and  _116
REMARK   44  A    between atoms: _115  and  _118
REMARK   45  A    between atoms: _118  and  _119
REMARK   46  A    between atoms: _122  and  _124
REMARK   47  A    between atoms: _124  and  _125
REMARK   48  A    between atoms: _124  and  _127
REMARK   49  A    between atoms: _130  and  _132
REMARK   50  A    between atoms: _132  and  _133
REMARK   51  A    between atoms: _132  and  _135
REMARK   52  A    between atoms: _137  and  _139
REMARK   53  A    between atoms: _139  and  _140
REMARK   54  A    between atoms: _139  and  _142
REMARK   55  A    between atoms: _142  and  _143
REMARK   56  A    between atoms: _148  and  _150
REMARK   57  A    between atoms: _150  and  _151
REMARK   58  A    between atoms: _150  and  _153
REMARK   59  A    between atoms: _153  and  _154
REMARK   60  A    between atoms: _156  and  _158
REMARK   61  A    between atoms: _158  and  _159
REMARK   62  A    between atoms: _158  and  _161
REMARK   63  A    between atoms: _161  and  _162
REMARK   64  A    between atoms: _162  and  _163
REMARK   65  A    between atoms: _163  and  _164
REMARK   66  A    between atoms: _164  and  _165
REMARK   67  A    between atoms: _169  and  _171
REMARK   68  A    between atoms: _171  and  _172
REMARK   69  A    between atoms: _171  and  _174
REMARK   70  A    between atoms: _174  and  _175
REMARK   71  A    between atoms: _185  and  _187
REMARK   72  A    between atoms: _187  and  _188
REMARK   73  A    between atoms: _190  and  _192
REMARK   74  A    between atoms: _192  and  _193
REMARK   75  A    between atoms: _192  and  _195
REMARK   76  A    between atoms: _195  and  _196
REMARK   77  A    between atoms: _199  and  _201
REMARK   78  A    between atoms: _201  and  _202
REMARK   79  A    between atoms: _201  and  _204
REMARK   80  A    between atoms: _204  and  _205
REMARK   81  A    between atoms: _205  and  _206
REMARK   82  A    between atoms: _209  and  _211
REMARK   83  A    between atoms: _211  and  _212
REMARK   84  A    between atoms: _211  and  _214
REMARK   85  A    between atoms: _214  and  _215
REMARK   86  A    between atoms: _215  and  _216
REMARK   87  A    between atoms: _221  and  _223
REMARK   88  A    between atoms: _223  and  _224
REMARK   89  A    between atoms: _223  and  _226
REMARK   90  A    between atoms: _226  and  _227
REMARK   91  A    between atoms: _227  and  _228
REMARK   92  A    between atoms: _228  and  _229
REMARK   93  A    between atoms: _238  and  _240
REMARK   94  A    between atoms: _240  and  _241
REMARK   95  A    between atoms: _240  and  _243
REMARK   96  A    between atoms: _243  and  _244
REMARK   97  A    between atoms: _244  and  _245
REMARK   98  A    between atoms: _245  and  _246
REMARK   99  A    between atoms: _255  and  _257
REMARK  100  A    between atoms: _257  and  _258
REMARK  101  A    between atoms: _257  and  _260
REMARK  102  A    between atoms: _260  and  _261
REMARK                            x       y       z     vdW  Elec       q    Type
REMARK                         _______ _______ _______ _____ _____    ______ ____
ROOT
ATOM      1  O   HOH     1      20.814   8.790  20.811  0.00  0.00    +0.000 OA
ENDROOT
TORSDOF 0
REMARK  Name = ../refined-set-2016/3oy8/3oy8_pocket.pdb
REMARK  102 active torsions:
REMARK  status: ('A' for Active; 'I' for Inactive)
REMARK    1  A    between atoms: _1  and  _3
REMARK    2  A    between atoms: _3  and  _4
REMARK    3  A    between atoms: _3  and  _6
REMARK    4  A    between atoms: _6  and  _7
REMARK    5  A    between atoms: _9  and  _11
REMARK    6  A    between atoms: _11  and  _12
REMARK    7  A    between atoms: _11  and  _14
REMARK    8  A    between atoms: _14  and  _15
REMARK    9  A    between atoms: _21  and  _23
REMARK   10  A    between atoms: _23  and  _24
REMARK   11  A    between atoms: _23  and  _26
REMARK   12  A    between atoms: _29  and  _31
REMARK   13  A    between atoms: _31  and  _32
REMARK   14  A    between atoms: _31  and  _34
REMARK   15  A    between atoms: _34  and  _35
REMARK   16  A    between atoms: _40  and  _42
REMARK   17  A    between atoms: _42  and  _43
REMARK   18  A    between atoms: _42  and  _45
REMARK   19  A    between atoms: _45  and  _46
REMARK   20  A    between atoms: _51  and  _53
REMARK   21  A    between atoms: _53  and  _54
REMARK   22  A    between atoms: _53  and  _56
REMARK   23  A    between atoms: _56  and  _57
REMARK   24  A    between atoms: _63  and  _65
REMARK   25  A    between atoms: _65  and  _66
REMARK   26  A    between atoms: _65  and  _68
REMARK   27  A    between atoms: _68  and  _69
REMARK   28  A    between atoms: _74  and  _76
REMARK   29  A    between atoms: _76  and  _77
REMARK   30  A    between atoms: _76  and  _79
REMARK   31  A    between atoms: _79  and  _80
REMARK   32  A    between atoms: _80  and  _81
REMARK   33  A    between atoms: _81  and  _82
REMARK   34  A    between atoms: _91  and  _93
REMARK   35  A    between atoms: _93  and  _94
REMARK   36  A    between atoms: _97  and  _99
REMARK   37  A    between atoms: _99  and  _100
REMARK   38  A    between atoms: _99  and  _102
REMARK   39  A    between atoms: _102  and  _103
REMARK   40  A    between atoms: _108  and  _110
REMARK   41  A    between atoms: _110  and  _111
REMARK   42  A    between atoms: _113  and  _115
REMARK   43  A    between atoms: _115  and  _116
REMARK   44  A    between atoms: _115  and  _118
REMARK   45  A    between atoms: _118  and  _119
REMARK   46  A    between atoms: _122  and  _124
REMARK   47  A    between atoms: _124  and  _125
REMARK   48  A    between atoms: _124  and  _127
REMARK   49  A    between atoms: _130  and  _132
REMARK   50  A    between atoms: _132  and  _133
REMARK   51  A    between atoms: _132  and  _135
REMARK   52  A    between atoms: _137  and  _139
REMARK   53  A    between atoms: _139  and  _140
REMARK   54  A    between atoms: _139  and  _142
REMARK   55  A    between atoms: _142  and  _143
REMARK   56  A    between atoms: _148  and  _150
REMARK   57  A    between atoms: _150  and  _151
REMARK   58  A    between atoms: _150  and  _153
REMARK   59  A    between atoms: _153  and  _154
REMARK   60  A    between atoms: _156  and  _158
REMARK   61  A    between atoms: _158  and  _159
REMARK   62  A    between atoms: _158  and  _161
REMARK   63  A    between atoms: _161  and  _162
REMARK   64  A    between atoms: _162  and  _163
REMARK   65  A    between atoms: _163  and  _164
REMARK   66  A    between atoms: _164  and  _165
REMARK   67  A    between atoms: _169  and  _171
REMARK   68  A    between atoms: _171  and  _172
REMARK   69  A    between atoms: _171  and  _174
REMARK   70  A    between atoms: _174  and  _175
REMARK   71  A    between atoms: _185  and  _187
REMARK   72  A    between atoms: _187  and  _188
REMARK   73  A    between atoms: _190  and  _192
REMARK   74  A    between atoms: _192  and  _193
REMARK   75  A    between atoms: _192  and  _195
REMARK   76  A    between atoms: _195  and  _196
REMARK   77  A    between atoms: _199  and  _201
REMARK   78  A    between atoms: _201  and  _202
REMARK   79  A    between atoms: _201  and  _204
REMARK   80  A    between atoms: _204  and  _205
REMARK   81  A    between atoms: _205  and  _206
REMARK   82  A    between atoms: _209  and  _211
REMARK   83  A    between atoms: _211  and  _212
REMARK   84  A    between atoms: _211  and  _214
REMARK   85  A    between atoms: _214  and  _215
REMARK   86  A    between atoms: _215  and  _216
REMARK   87  A    between atoms: _221  and  _223
REMARK   88  A    between atoms: _223  and  _224
REMARK   89  A    between atoms: _223  and  _226
REMARK   90  A    between atoms: _226  and  _227
REMARK   91  A    between atoms: _227  and  _228
REMARK   92  A    between atoms: _228  and  _229
REMARK   93  A    between atoms: _238  and  _240
REMARK   94  A    between atoms: _240  and  _241
REMARK   95  A    between atoms: _240  and  _243
REMARK   96  A    between atoms: _243  and  _244
REMARK   97  A    between atoms: _244  and  _245
REMARK   98  A    between atoms: _245  and  _246
REMARK   99  A    between atoms: _255  and  _257
REMARK  100  A    between atoms: _257  and  _258
REMARK  101  A    between atoms: _257  and  _260
REMARK  102  A    between atoms: _260  and  _261
REMARK                            x       y       z     vdW  Elec       q    Type
REMARK                         _______ _______ _______ _____ _____    ______ ____
ROOT
ATOM      1  O   HOH     1      23.365   7.503  10.867  0.00  0.00    +0.000 OA
ENDROOT
TORSDOF 0
REMARK  Name = ../refined-set-2016/3oy8/3oy8_pocket.pdb
REMARK  102 active torsions:
REMARK  status: ('A' for Active; 'I' for Inactive)
REMARK    1  A    between atoms: _1  and  _3
REMARK    2  A    between atoms: _3  and  _4
REMARK    3  A    between atoms: _3  and  _6
REMARK    4  A    between atoms: _6  and  _7
REMARK    5  A    between atoms: _9  and  _11
REMARK    6  A    between atoms: _11  and  _12
REMARK    7  A    between atoms: _11  and  _14
REMARK    8  A    between atoms: _14  and  _15
REMARK    9  A    between atoms: _21  and  _23
REMARK   10  A    between atoms: _23  and  _24
REMARK   11  A    between atoms: _23  and  _26
REMARK   12  A    between atoms: _29  and  _31
REMARK   13  A    between atoms: _31  and  _32
REMARK   14  A    between atoms: _31  and  _34
REMARK   15  A    between atoms: _34  and  _35
REMARK   16  A    between atoms: _40  and  _42
REMARK   17  A    between atoms: _42  and  _43
REMARK   18  A    between atoms: _42  and  _45
REMARK   19  A    between atoms: _45  and  _46
REMARK   20  A    between atoms: _51  and  _53
REMARK   21  A    between atoms: _53  and  _54
REMARK   22  A    between atoms: _53  and  _56
REMARK   23  A    between atoms: _56  and  _57
REMARK   24  A    between atoms: _63  and  _65
REMARK   25  A    between atoms: _65  and  _66
REMARK   26  A    between atoms: _65  and  _68
REMARK   27  A    between atoms: _68  and  _69
REMARK   28  A    between atoms: _74  and  _76
REMARK   29  A    between atoms: _76  and  _77
REMARK   30  A    between atoms: _76  and  _79
REMARK   31  A    between atoms: _79  and  _80
REMARK   32  A    between atoms: _80  and  _81
REMARK   33  A    between atoms: _81  and  _82
REMARK   34  A    between atoms: _91  and  _93
REMARK   35  A    between atoms: _93  and  _94
REMARK   36  A    between atoms: _97  and  _99
REMARK   37  A    between atoms: _99  and  _100
REMARK   38  A    between atoms: _99  and  _102
REMARK   39  A    between atoms: _102  and  _103
REMARK   40  A    between atoms: _108  and  _110
REMARK   41  A    between atoms: _110  and  _111
REMARK   42  A    between atoms: _113  and  _115
REMARK   43  A    between atoms: _115  and  _116
REMARK   44  A    between atoms: _115  and  _118
REMARK   45  A    between atoms: _118  and  _119
REMARK   46  A    between atoms: _122  and  _124
REMARK   47  A    between atoms: _124  and  _125
REMARK   48  A    between atoms: _124  and  _127
REMARK   49  A    between atoms: _130  and  _132
REMARK   50  A    between atoms: _132  and  _133
REMARK   51  A    between atoms: _132  and  _135
REMARK   52  A    between atoms: _137  and  _139
REMARK   53  A    between atoms: _139  and  _140
REMARK   54  A    between atoms: _139  and  _142
REMARK   55  A    between atoms: _142  and  _143
REMARK   56  A    between atoms: _148  and  _150
REMARK   57  A    between atoms: _150  and  _151
REMARK   58  A    between atoms: _150  and  _153
REMARK   59  A    between atoms: _153  and  _154
REMARK   60  A    between atoms: _156  and  _158
REMARK   61  A    between atoms: _158  and  _159
REMARK   62  A    between atoms: _158  and  _161
REMARK   63  A    between atoms: _161  and  _162
REMARK   64  A    between atoms: _162  and  _163
REMARK   65  A    between atoms: _163  and  _164
REMARK   66  A    between atoms: _164  and  _165
REMARK   67  A    between atoms: _169  and  _171
REMARK   68  A    between atoms: _171  and  _172
REMARK   69  A    between atoms: _171  and  _174
REMARK   70  A    between atoms: _174  and  _175
REMARK   71  A    between atoms: _185  and  _187
REMARK   72  A    between atoms: _187  and  _188
REMARK   73  A    between atoms: _190  and  _192
REMARK   74  A    between atoms: _192  and  _193
REMARK   75  A    between atoms: _192  and  _195
REMARK   76  A    between atoms: _195  and  _196
REMARK   77  A    between atoms: _199  and  _201
REMARK   78  A    between atoms: _201  and  _202
REMARK   79  A    between atoms: _201  and  _204
REMARK   80  A    between atoms: _204  and  _205
REMARK   81  A    between atoms: _205  and  _206
REMARK   82  A    between atoms: _209  and  _211
REMARK   83  A    between atoms: _211  and  _212
REMARK   84  A    between atoms: _211  and  _214
REMARK   85  A    between atoms: _214  and  _215
REMARK   86  A    between atoms: _215  and  _216
REMARK   87  A    between atoms: _221  and  _223
REMARK   88  A    between atoms: _223  and  _224
REMARK   89  A    between atoms: _223  and  _226
REMARK   90  A    between atoms: _226  and  _227
REMARK   91  A    between atoms: _227  and  _228
REMARK   92  A    between atoms: _228  and  _229
REMARK   93  A    between atoms: _238  and  _240
REMARK   94  A    between atoms: _240  and  _241
REMARK   95  A    between atoms: _240  and  _243
REMARK   96  A    between atoms: _243  and  _244
REMARK   97  A    between atoms: _244  and  _245
REMARK   98  A    between atoms: _245  and  _246
REMARK   99  A    between atoms: _255  and  _257
REMARK  100  A    between atoms: _257  and  _258
REMARK  101  A    between atoms: _257  and  _260
REMARK  102  A    between atoms: _260  and  _261
REMARK                            x       y       z     vdW  Elec       q    Type
REMARK                         _______ _______ _______ _____ _____    ______ ____
ROOT
ATOM      1  O   HOH     1      24.333   6.224  23.814  0.00  0.00    +0.000 OA
ENDROOT
TORSDOF 0
REMARK  Name = ../refined-set-2016/3oy8/3oy8_pocket.pdb
REMARK  102 active torsions:
REMARK  status: ('A' for Active; 'I' for Inactive)
REMARK    1  A    between atoms: _1  and  _3
REMARK    2  A    between atoms: _3  and  _4
REMARK    3  A    between atoms: _3  and  _6
REMARK    4  A    between atoms: _6  and  _7
REMARK    5  A    between atoms: _9  and  _11
REMARK    6  A    between atoms: _11  and  _12
REMARK    7  A    between atoms: _11  and  _14
REMARK    8  A    between atoms: _14  and  _15
REMARK    9  A    between atoms: _21  and  _23
REMARK   10  A    between atoms: _23  and  _24
REMARK   11  A    between atoms: _23  and  _26
REMARK   12  A    between atoms: _29  and  _31
REMARK   13  A    between atoms: _31  and  _32
REMARK   14  A    between atoms: _31  and  _34
REMARK   15  A    between atoms: _34  and  _35
REMARK   16  A    between atoms: _40  and  _42
REMARK   17  A    between atoms: _42  and  _43
REMARK   18  A    between atoms: _42  and  _45
REMARK   19  A    between atoms: _45  and  _46
REMARK   20  A    between atoms: _51  and  _53
REMARK   21  A    between atoms: _53  and  _54
REMARK   22  A    between atoms: _53  and  _56
REMARK   23  A    between atoms: _56  and  _57
REMARK   24  A    between atoms: _63  and  _65
REMARK   25  A    between atoms: _65  and  _66
REMARK   26  A    between atoms: _65  and  _68
REMARK   27  A    between atoms: _68  and  _69
REMARK   28  A    between atoms: _74  and  _76
REMARK   29  A    between atoms: _76  and  _77
REMARK   30  A    between atoms: _76  and  _79
REMARK   31  A    between atoms: _79  and  _80
REMARK   32  A    between atoms: _80  and  _81
REMARK   33  A    between atoms: _81  and  _82
REMARK   34  A    between atoms: _91  and  _93
REMARK   35  A    between atoms: _93  and  _94
REMARK   36  A    between atoms: _97  and  _99
REMARK   37  A    between atoms: _99  and  _100
REMARK   38  A    between atoms: _99  and  _102
REMARK   39  A    between atoms: _102  and  _103
REMARK   40  A    between atoms: _108  and  _110
REMARK   41  A    between atoms: _110  and  _111
REMARK   42  A    between atoms: _113  and  _115
REMARK   43  A    between atoms: _115  and  _116
REMARK   44  A    between atoms: _115  and  _118
REMARK   45  A    between atoms: _118  and  _119
REMARK   46  A    between atoms: _122  and  _124
REMARK   47  A    between atoms: _124  and  _125
REMARK   48  A    between atoms: _124  and  _127
REMARK   49  A    between atoms: _130  and  _132
REMARK   50  A    between atoms: _132  and  _133
REMARK   51  A    between atoms: _132  and  _135
REMARK   52  A    between atoms: _137  and  _139
REMARK   53  A    between atoms: _139  and  _140
REMARK   54  A    between atoms: _139  and  _142
REMARK   55  A    between atoms: _142  and  _143
REMARK   56  A    between atoms: _148  and  _150
REMARK   57  A    between atoms: _150  and  _151
REMARK   58  A    between atoms: _150  and  _153
REMARK   59  A    between atoms: _153  and  _154
REMARK   60  A    between atoms: _156  and  _158
REMARK   61  A    between atoms: _158  and  _159
REMARK   62  A    between atoms: _158  and  _161
REMARK   63  A    between atoms: _161  and  _162
REMARK   64  A    between atoms: _162  and  _163
REMARK   65  A    between atoms: _163  and  _164
REMARK   66  A    between atoms: _164  and  _165
REMARK   67  A    between atoms: _169  and  _171
REMARK   68  A    between atoms: _171  and  _172
REMARK   69  A    between atoms: _171  and  _174
REMARK   70  A    between atoms: _174  and  _175
REMARK   71  A    between atoms: _185  and  _187
REMARK   72  A    between atoms: _187  and  _188
REMARK   73  A    between atoms: _190  and  _192
REMARK   74  A    between atoms: _192  and  _193
REMARK   75  A    between atoms: _192  and  _195
REMARK   76  A    between atoms: _195  and  _196
REMARK   77  A    between atoms: _199  and  _201
REMARK   78  A    between atoms: _201  and  _202
REMARK   79  A    between atoms: _201  and  _204
REMARK   80  A    between atoms: _204  and  _205
REMARK   81  A    between atoms: _205  and  _206
REMARK   82  A    between atoms: _209  and  _211
REMARK   83  A    between atoms: _211  and  _212
REMARK   84  A    between atoms: _211  and  _214
REMARK   85  A    between atoms: _214  and  _215
REMARK   86  A    between atoms: _215  and  _216
REMARK   87  A    between atoms: _221  and  _223
REMARK   88  A    between atoms: _223  and  _224
REMARK   89  A    between atoms: _223  and  _226
REMARK   90  A    between atoms: _226  and  _227
REMARK   91  A    between atoms: _227  and  _228
REMARK   92  A    between atoms: _228  and  _229
REMARK   93  A    between atoms: _238  and  _240
REMARK   94  A    between atoms: _240  and  _241
REMARK   95  A    between atoms: _240  and  _243
REMARK   96  A    between atoms: _243  and  _244
REMARK   97  A    between atoms: _244  and  _245
REMARK   98  A    between atoms: _245  and  _246
REMARK   99  A    between atoms: _255  and  _257
REMARK  100  A    between atoms: _257  and  _258
REMARK  101  A    between atoms: _257  and  _260
REMARK  102  A    between atoms: _260  and  _261
REMARK                            x       y       z     vdW  Elec       q    Type
REMARK                         _______ _______ _______ _____ _____    ______ ____
ROOT
ATOM      1  O   HOH     1      22.586   1.809  26.402  0.00  0.00    +0.000 OA
ENDROOT
TORSDOF 0
REMARK  Name = ../refined-set-2016/3oy8/3oy8_pocket.pdb
REMARK  102 active torsions:
REMARK  status: ('A' for Active; 'I' for Inactive)
REMARK    1  A    between atoms: _1  and  _3
REMARK    2  A    between atoms: _3  and  _4
REMARK    3  A    between atoms: _3  and  _6
REMARK    4  A    between atoms: _6  and  _7
REMARK    5  A    between atoms: _9  and  _11
REMARK    6  A    between atoms: _11  and  _12
REMARK    7  A    between atoms: _11  and  _14
REMARK    8  A    between atoms: _14  and  _15
REMARK    9  A    between atoms: _21  and  _23
REMARK   10  A    between atoms: _23  and  _24
REMARK   11  A    between atoms: _23  and  _26
REMARK   12  A    between atoms: _29  and  _31
REMARK   13  A    between atoms: _31  and  _32
REMARK   14  A    between atoms: _31  and  _34
REMARK   15  A    between atoms: _34  and  _35
REMARK   16  A    between atoms: _40  and  _42
REMARK   17  A    between atoms: _42  and  _43
REMARK   18  A    between atoms: _42  and  _45
REMARK   19  A    between atoms: _45  and  _46
REMARK   20  A    between atoms: _51  and  _53
REMARK   21  A    between atoms: _53  and  _54
REMARK   22  A    between atoms: _53  and  _56
REMARK   23  A    between atoms: _56  and  _57
REMARK   24  A    between atoms: _63  and  _65
REMARK   25  A    between atoms: _65  and  _66
REMARK   26  A    between atoms: _65  and  _68
REMARK   27  A    between atoms: _68  and  _69
REMARK   28  A    between atoms: _74  and  _76
REMARK   29  A    between atoms: _76  and  _77
REMARK   30  A    between atoms: _76  and  _79
REMARK   31  A    between atoms: _79  and  _80
REMARK   32  A    between atoms: _80  and  _81
REMARK   33  A    between atoms: _81  and  _82
REMARK   34  A    between atoms: _91  and  _93
REMARK   35  A    between atoms: _93  and  _94
REMARK   36  A    between atoms: _97  and  _99
REMARK   37  A    between atoms: _99  and  _100
REMARK   38  A    between atoms: _99  and  _102
REMARK   39  A    between atoms: _102  and  _103
REMARK   40  A    between atoms: _108  and  _110
REMARK   41  A    between atoms: _110  and  _111
REMARK   42  A    between atoms: _113  and  _115
REMARK   43  A    between atoms: _115  and  _116
REMARK   44  A    between atoms: _115  and  _118
REMARK   45  A    between atoms: _118  and  _119
REMARK   46  A    between atoms: _122  and  _124
REMARK   47  A    between atoms: _124  and  _125
REMARK   48  A    between atoms: _124  and  _127
REMARK   49  A    between atoms: _130  and  _132
REMARK   50  A    between atoms: _132  and  _133
REMARK   51  A    between atoms: _132  and  _135
REMARK   52  A    between atoms: _137  and  _139
REMARK   53  A    between atoms: _139  and  _140
REMARK   54  A    between atoms: _139  and  _142
REMARK   55  A    between atoms: _142  and  _143
REMARK   56  A    between atoms: _148  and  _150
REMARK   57  A    between atoms: _150  and  _151
REMARK   58  A    between atoms: _150  and  _153
REMARK   59  A    between atoms: _153  and  _154
REMARK   60  A    between atoms: _156  and  _158
REMARK   61  A    between atoms: _158  and  _159
REMARK   62  A    between atoms: _158  and  _161
REMARK   63  A    between atoms: _161  and  _162
REMARK   64  A    between atoms: _162  and  _163
REMARK   65  A    between atoms: _163  and  _164
REMARK   66  A    between atoms: _164  and  _165
REMARK   67  A    between atoms: _169  and  _171
REMARK   68  A    between atoms: _171  and  _172
REMARK   69  A    between atoms: _171  and  _174
REMARK   70  A    between atoms: _174  and  _175
REMARK   71  A    between atoms: _185  and  _187
REMARK   72  A    between atoms: _187  and  _188
REMARK   73  A    between atoms: _190  and  _192
REMARK   74  A    between atoms: _192  and  _193
REMARK   75  A    between atoms: _192  and  _195
REMARK   76  A    between atoms: _195  and  _196
REMARK   77  A    between atoms: _199  and  _201
REMARK   78  A    between atoms: _201  and  _202
REMARK   79  A    between atoms: _201  and  _204
REMARK   80  A    between atoms: _204  and  _205
REMARK   81  A    between atoms: _205  and  _206
REMARK   82  A    between atoms: _209  and  _211
REMARK   83  A    between atoms: _211  and  _212
REMARK   84  A    between atoms: _211  and  _214
REMARK   85  A    between atoms: _214  and  _215
REMARK   86  A    between atoms: _215  and  _216
REMARK   87  A    between atoms: _221  and  _223
REMARK   88  A    between atoms: _223  and  _224
REMARK   89  A    between atoms: _223  and  _226
REMARK   90  A    between atoms: _226  and  _227
REMARK   91  A    between atoms: _227  and  _228
REMARK   92  A    between atoms: _228  and  _229
REMARK   93  A    between atoms: _238  and  _240
REMARK   94  A    between atoms: _240  and  _241
REMARK   95  A    between atoms: _240  and  _243
REMARK   96  A    between atoms: _243  and  _244
REMARK   97  A    between atoms: _244  and  _245
REMARK   98  A    between atoms: _245  and  _246
REMARK   99  A    between atoms: _255  and  _257
REMARK  100  A    between atoms: _257  and  _258
REMARK  101  A    between atoms: _257  and  _260
REMARK  102  A    between atoms: _260  and  _261
REMARK                            x       y       z     vdW  Elec       q    Type
REMARK                         _______ _______ _______ _____ _____    ______ ____
ROOT
ATOM      1  O   HOH     1      21.346  -1.509  21.309  0.00  0.00    +0.000 OA
ENDROOT
TORSDOF 0
REMARK  Name = ../refined-set-2016/3oy8/3oy8_pocket.pdb
REMARK  102 active torsions:
REMARK  status: ('A' for Active; 'I' for Inactive)
REMARK    1  A    between atoms: _1  and  _3
REMARK    2  A    between atoms: _3  and  _4
REMARK    3  A    between atoms: _3  and  _6
REMARK    4  A    between atoms: _6  and  _7
REMARK    5  A    between atoms: _9  and  _11
REMARK    6  A    between atoms: _11  and  _12
REMARK    7  A    between atoms: _11  and  _14
REMARK    8  A    between atoms: _14  and  _15
REMARK    9  A    between atoms: _21  and  _23
REMARK   10  A    between atoms: _23  and  _24
REMARK   11  A    between atoms: _23  and  _26
REMARK   12  A    between atoms: _29  and  _31
REMARK   13  A    between atoms: _31  and  _32
REMARK   14  A    between atoms: _31  and  _34
REMARK   15  A    between atoms: _34  and  _35
REMARK   16  A    between atoms: _40  and  _42
REMARK   17  A    between atoms: _42  and  _43
REMARK   18  A    between atoms: _42  and  _45
REMARK   19  A    between atoms: _45  and  _46
REMARK   20  A    between atoms: _51  and  _53
REMARK   21  A    between atoms: _53  and  _54
REMARK   22  A    between atoms: _53  and  _56
REMARK   23  A    between atoms: _56  and  _57
REMARK   24  A    between atoms: _63  and  _65
REMARK   25  A    between atoms: _65  and  _66
REMARK   26  A    between atoms: _65  and  _68
REMARK   27  A    between atoms: _68  and  _69
REMARK   28  A    between atoms: _74  and  _76
REMARK   29  A    between atoms: _76  and  _77
REMARK   30  A    between atoms: _76  and  _79
REMARK   31  A    between atoms: _79  and  _80
REMARK   32  A    between atoms: _80  and  _81
REMARK   33  A    between atoms: _81  and  _82
REMARK   34  A    between atoms: _91  and  _93
REMARK   35  A    between atoms: _93  and  _94
REMARK   36  A    between atoms: _97  and  _99
REMARK   37  A    between atoms: _99  and  _100
REMARK   38  A    between atoms: _99  and  _102
REMARK   39  A    between atoms: _102  and  _103
REMARK   40  A    between atoms: _108  and  _110
REMARK   41  A    between atoms: _110  and  _111
REMARK   42  A    between atoms: _113  and  _115
REMARK   43  A    between atoms: _115  and  _116
REMARK   44  A    between atoms: _115  and  _118
REMARK   45  A    between atoms: _118  and  _119
REMARK   46  A    between atoms: _122  and  _124
REMARK   47  A    between atoms: _124  and  _125
REMARK   48  A    between atoms: _124  and  _127
REMARK   49  A    between atoms: _130  and  _132
REMARK   50  A    between atoms: _132  and  _133
REMARK   51  A    between atoms: _132  and  _135
REMARK   52  A    between atoms: _137  and  _139
REMARK   53  A    between atoms: _139  and  _140
REMARK   54  A    between atoms: _139  and  _142
REMARK   55  A    between atoms: _142  and  _143
REMARK   56  A    between atoms: _148  and  _150
REMARK   57  A    between atoms: _150  and  _151
REMARK   58  A    between atoms: _150  and  _153
REMARK   59  A    between atoms: _153  and  _154
REMARK   60  A    between atoms: _156  and  _158
REMARK   61  A    between atoms: _158  and  _159
REMARK   62  A    between atoms: _158  and  _161
REMARK   63  A    between atoms: _161  and  _162
REMARK   64  A    between atoms: _162  and  _163
REMARK   65  A    between atoms: _163  and  _164
REMARK   66  A    between atoms: _164  and  _165
REMARK   67  A    between atoms: _169  and  _171
REMARK   68  A    between atoms: _171  and  _172
REMARK   69  A    between atoms: _171  and  _174
REMARK   70  A    between atoms: _174  and  _175
REMARK   71  A    between atoms: _185  and  _187
REMARK   72  A    between atoms: _187  and  _188
REMARK   73  A    between atoms: _190  and  _192
REMARK   74  A    between atoms: _192  and  _193
REMARK   75  A    between atoms: _192  and  _195
REMARK   76  A    between atoms: _195  and  _196
REMARK   77  A    between atoms: _199  and  _201
REMARK   78  A    between atoms: _201  and  _202
REMARK   79  A    between atoms: _201  and  _204
REMARK   80  A    between atoms: _204  and  _205
REMARK   81  A    between atoms: _205  and  _206
REMARK   82  A    between atoms: _209  and  _211
REMARK   83  A    between atoms: _211  and  _212
REMARK   84  A    between atoms: _211  and  _214
REMARK   85  A    between atoms: _214  and  _215
REMARK   86  A    between atoms: _215  and  _216
REMARK   87  A    between atoms: _221  and  _223
REMARK   88  A    between atoms: _223  and  _224
REMARK   89  A    between atoms: _223  and  _226
REMARK   90  A    between atoms: _226  and  _227
REMARK   91  A    between atoms: _227  and  _228
REMARK   92  A    between atoms: _228  and  _229
REMARK   93  A    between atoms: _238  and  _240
REMARK   94  A    between atoms: _240  and  _241
REMARK   95  A    between atoms: _240  and  _243
REMARK   96  A    between atoms: _243  and  _244
REMARK   97  A    between atoms: _244  and  _245
REMARK   98  A    between atoms: _245  and  _246
REMARK   99  A    between atoms: _255  and  _257
REMARK  100  A    between atoms: _257  and  _258
REMARK  101  A    between atoms: _257  and  _260
REMARK  102  A    between atoms: _260  and  _261
REMARK                            x       y       z     vdW  Elec       q    Type
REMARK                         _______ _______ _______ _____ _____    ______ ____
ROOT
ATOM      1  O   HOH     1      24.760   4.358  21.314  0.00  0.00    +0.000 OA
ENDROOT
TORSDOF 0
