REMARK  Name = ../refined-set-2016/3qqa/3qqa_pocket.pdb
REMARK  237 active torsions:
REMARK  status: ('A' for Active; 'I' for Inactive)
REMARK    1  A    between atoms: _1  and  _3
REMARK    2  A    between atoms: _3  and  _4
REMARK    3  A    between atoms: _3  and  _6
REMARK    4  A    between atoms: _6  and  _7
REMARK    5  A    between atoms: _13  and  _15
REMARK    6  A    between atoms: _15  and  _16
REMARK    7  A    between atoms: _15  and  _18
REMARK    8  A    between atoms: _18  and  _19
REMARK    9  A    between atoms: _25  and  _27
REMARK   10  A    between atoms: _27  and  _28
REMARK   11  A    between atoms: _27  and  _30
REMARK   12  A    between atoms: _30  and  _31
REMARK   13  A    between atoms: _34  and  _36
REMARK   14  A    between atoms: _36  and  _37
REMARK   15  A    between atoms: _36  and  _39
REMARK   16  A    between atoms: _39  and  _40
REMARK   17  A    between atoms: _43  and  _45
REMARK   18  A    between atoms: _45  and  _46
REMARK   19  A    between atoms: _45  and  _48
REMARK   20  A    between atoms: _48  and  _49
REMARK   21  A    between atoms: _52  and  _54
REMARK   22  A    between atoms: _54  and  _55
REMARK   23  A    between atoms: _54  and  _57
REMARK   24  A    between atoms: _57  and  _58
REMARK   25  A    between atoms: _61  and  _63
REMARK   26  A    between atoms: _63  and  _64
REMARK   27  A    between atoms: _63  and  _66
REMARK   28  A    between atoms: _68  and  _70
REMARK   29  A    between atoms: _70  and  _71
REMARK   30  A    between atoms: _70  and  _73
REMARK   31  A    between atoms: _73  and  _74
REMARK   32  A    between atoms: _79  and  _81
REMARK   33  A    between atoms: _81  and  _82
REMARK   34  A    between atoms: _81  and  _84
REMARK   35  A    between atoms: _84  and  _85
REMARK   36  A    between atoms: _91  and  _93
REMARK   37  A    between atoms: _93  and  _94
REMARK   38  A    between atoms: _93  and  _96
REMARK   39  A    between atoms: _96  and  _97
REMARK   40  A    between atoms: _103  and  _105
REMARK   41  A    between atoms: _105  and  _106
REMARK   42  A    between atoms: _105  and  _108
REMARK   43  A    between atoms: _108  and  _109
REMARK   44  A    between atoms: _112  and  _114
REMARK   45  A    between atoms: _114  and  _115
REMARK   46  A    between atoms: _114  and  _117
REMARK   47  A    between atoms: _117  and  _118
REMARK   48  A    between atoms: _124  and  _126
REMARK   49  A    between atoms: _126  and  _127
REMARK   50  A    between atoms: _126  and  _129
REMARK   51  A    between atoms: _129  and  _130
REMARK   52  A    between atoms: _135  and  _137
REMARK   53  A    between atoms: _137  and  _138
REMARK   54  A    between atoms: _137  and  _140
REMARK   55  A    between atoms: _140  and  _141
REMARK   56  A    between atoms: _141  and  _142
REMARK   57  A    between atoms: _147  and  _149
REMARK   58  A    between atoms: _149  and  _150
REMARK   59  A    between atoms: _149  and  _152
REMARK   60  A    between atoms: _152  and  _153
REMARK   61  A    between atoms: _153  and  _154
REMARK   62  A    between atoms: _157  and  _159
REMARK   63  A    between atoms: _159  and  _160
REMARK   64  A    between atoms: _163  and  _165
REMARK   65  A    between atoms: _165  and  _166
REMARK   66  A    between atoms: _165  and  _168
REMARK   67  A    between atoms: _171  and  _173
REMARK   68  A    between atoms: _173  and  _174
REMARK   69  A    between atoms: _177  and  _179
REMARK   70  A    between atoms: _179  and  _180
REMARK   71  A    between atoms: _179  and  _182
REMARK   72  A    between atoms: _182  and  _183
REMARK   73  A    between atoms: _189  and  _191
REMARK   74  A    between atoms: _191  and  _192
REMARK   75  A    between atoms: _194  and  _196
REMARK   76  A    between atoms: _196  and  _197
REMARK   77  A    between atoms: _196  and  _199
REMARK   78  A    between atoms: _199  and  _200
REMARK   79  A    between atoms: _200  and  _201
REMARK   80  A    between atoms: _201  and  _202
REMARK   81  A    between atoms: _202  and  _203
REMARK   82  A    between atoms: _207  and  _209
REMARK   83  A    between atoms: _209  and  _210
REMARK   84  A    between atoms: _209  and  _212
REMARK   85  A    between atoms: _212  and  _213
REMARK   86  A    between atoms: _216  and  _218
REMARK   87  A    between atoms: _218  and  _219
REMARK   88  A    between atoms: _218  and  _221
REMARK   89  A    between atoms: _221  and  _222
REMARK   90  A    between atoms: _225  and  _227
REMARK   91  A    between atoms: _227  and  _228
REMARK   92  A    between atoms: _227  and  _230
REMARK   93  A    between atoms: _230  and  _231
REMARK   94  A    between atoms: _236  and  _237
REMARK   95  A    between atoms: _239  and  _241
REMARK   96  A    between atoms: _241  and  _242
REMARK   97  A    between atoms: _241  and  _244
REMARK   98  A    between atoms: _244  and  _245
REMARK   99  A    between atoms: _248  and  _250
REMARK  100  A    between atoms: _250  and  _251
REMARK  101  A    between atoms: _250  and  _253
REMARK  102  A    between atoms: _253  and  _254
REMARK  103  A    between atoms: _264  and  _266
REMARK  104  A    between atoms: _266  and  _267
REMARK  105  A    between atoms: _266  and  _269
REMARK  106  A    between atoms: _269  and  _270
REMARK  107  A    between atoms: _273  and  _275
REMARK  108  A    between atoms: _275  and  _276
REMARK  109  A    between atoms: _275  and  _278
REMARK  110  A    between atoms: _278  and  _279
REMARK  111  A    between atoms: _279  and  _280
REMARK  112  A    between atoms: _283  and  _285
REMARK  113  A    between atoms: _285  and  _286
REMARK  114  A    between atoms: _285  and  _288
REMARK  115  A    between atoms: _288  and  _289
REMARK  116  A    between atoms: _294  and  _296
REMARK  117  A    between atoms: _296  and  _297
REMARK  118  A    between atoms: _296  and  _299
REMARK  119  A    between atoms: _299  and  _300
REMARK  120  A    between atoms: _300  and  _301
REMARK  121  A    between atoms: _306  and  _308
REMARK  122  A    between atoms: _308  and  _309
REMARK  123  A    between atoms: _308  and  _311
REMARK  124  A    between atoms: _311  and  _312
REMARK  125  A    between atoms: _317  and  _319
REMARK  126  A    between atoms: _319  and  _320
REMARK  127  A    between atoms: _319  and  _322
REMARK  128  A    between atoms: _322  and  _323
REMARK  129  A    between atoms: _329  and  _331
REMARK  130  A    between atoms: _331  and  _332
REMARK  131  A    between atoms: _331  and  _334
REMARK  132  A    between atoms: _334  and  _335
REMARK  133  A    between atoms: _337  and  _339
REMARK  134  A    between atoms: _339  and  _340
REMARK  135  A    between atoms: _339  and  _342
REMARK  136  A    between atoms: _342  and  _343
REMARK  137  A    between atoms: _348  and  _349
REMARK  138  A    between atoms: _351  and  _353
REMARK  139  A    between atoms: _353  and  _354
REMARK  140  A    between atoms: _353  and  _356
REMARK  141  A    between atoms: _356  and  _357
REMARK  142  A    between atoms: _362  and  _364
REMARK  143  A    between atoms: _364  and  _365
REMARK  144  A    between atoms: _364  and  _367
REMARK  145  A    between atoms: _367  and  _368
REMARK  146  A    between atoms: _368  and  _369
REMARK  147  A    between atoms: _371  and  _373
REMARK  148  A    between atoms: _373  and  _374
REMARK  149  A    between atoms: _373  and  _376
REMARK  150  A    between atoms: _376  and  _377
REMARK  151  A    between atoms: _377  and  _378
REMARK  152  A    between atoms: _381  and  _383
REMARK  153  A    between atoms: _383  and  _384
REMARK  154  A    between atoms: _383  and  _386
REMARK  155  A    between atoms: _386  and  _387
REMARK  156  A    between atoms: _387  and  _388
REMARK  157  A    between atoms: _388  and  _389
REMARK  158  A    between atoms: _389  and  _390
REMARK  159  A    between atoms: _394  and  _396
REMARK  160  A    between atoms: _396  and  _397
REMARK  161  A    between atoms: _400  and  _402
REMARK  162  A    between atoms: _402  and  _403
REMARK  163  A    between atoms: _402  and  _405
REMARK  164  A    between atoms: _408  and  _410
REMARK  165  A    between atoms: _410  and  _411
REMARK  166  A    between atoms: _410  and  _413
REMARK  167  A    between atoms: _413  and  _414
REMARK  168  A    between atoms: _417  and  _419
REMARK  169  A    between atoms: _419  and  _420
REMARK  170  A    between atoms: _419  and  _422
REMARK  171  A    between atoms: _424  and  _426
REMARK  172  A    between atoms: _426  and  _427
REMARK  173  A    between atoms: _426  and  _429
REMARK  174  A    between atoms: _429  and  _430
REMARK  175  A    between atoms: _433  and  _435
REMARK  176  A    between atoms: _435  and  _436
REMARK  177  A    between atoms: _435  and  _438
REMARK  178  A    between atoms: _439  and  _440
REMARK  179  A    between atoms: _440  and  _441
REMARK  180  A    between atoms: _441  and  _442
REMARK  181  A    between atoms: _446  and  _448
REMARK  182  A    between atoms: _448  and  _449
REMARK  183  A    between atoms: _448  and  _451
REMARK  184  A    between atoms: _451  and  _452
REMARK  185  A    between atoms: _452  and  _453
REMARK  186  A    between atoms: _456  and  _458
REMARK  187  A    between atoms: _458  and  _459
REMARK  188  A    between atoms: _458  and  _461
REMARK  189  A    between atoms: _461  and  _462
REMARK  190  A    between atoms: _467  and  _469
REMARK  191  A    between atoms: _469  and  _470
REMARK  192  A    between atoms: _469  and  _472
REMARK  193  A    between atoms: _472  and  _473
REMARK  194  A    between atoms: _478  and  _480
REMARK  195  A    between atoms: _480  and  _481
REMARK  196  A    between atoms: _480  and  _483
REMARK  197  A    between atoms: _486  and  _488
REMARK  198  A    between atoms: _488  and  _489
REMARK  199  A    between atoms: _488  and  _491
REMARK  200  A    between atoms: _491  and  _492
REMARK  201  A    between atoms: _497  and  _498
REMARK  202  A    between atoms: _500  and  _502
REMARK  203  A    between atoms: _502  and  _503
REMARK  204  A    between atoms: _502  and  _505
REMARK  205  A    between atoms: _505  and  _506
REMARK  206  A    between atoms: _506  and  _507
REMARK  207  A    between atoms: _511  and  _512
REMARK  208  A    between atoms: _517  and  _519
REMARK  209  A    between atoms: _519  and  _520
REMARK  210  A    between atoms: _519  and  _522
REMARK  211  A    between atoms: _522  and  _523
REMARK  212  A    between atoms: _528  and  _529
REMARK  213  A    between atoms: _531  and  _533
REMARK  214  A    between atoms: _533  and  _534
REMARK  215  A    between atoms: _533  and  _536
REMARK  216  A    between atoms: _536  and  _537
REMARK  217  A    between atoms: _542  and  _544
REMARK  218  A    between atoms: _544  and  _545
REMARK  219  A    between atoms: _544  and  _547
REMARK  220  A    between atoms: _547  and  _548
REMARK  221  A    between atoms: _551  and  _553
REMARK  222  A    between atoms: _553  and  _554
REMARK  223  A    between atoms: _553  and  _556
REMARK  224  A    between atoms: _556  and  _557
REMARK  225  A    between atoms: _560  and  _562
REMARK  226  A    between atoms: _562  and  _563
REMARK  227  A    between atoms: _562  and  _565
REMARK  228  A    between atoms: _565  and  _566
REMARK  229  A    between atoms: _569  and  _571
REMARK  230  A    between atoms: _571  and  _572
REMARK  231  A    between atoms: _575  and  _577
REMARK  232  A    between atoms: _577  and  _578
REMARK  233  A    between atoms: _577  and  _580
REMARK  234  A    between atoms: _580  and  _581
REMARK  235  A    between atoms: _581  and  _582
REMARK  236  A    between atoms: _582  and  _583
REMARK  237  A    between atoms: _583  and  _584
REMARK                            x       y       z     vdW  Elec       q    Type
REMARK                         _______ _______ _______ _____ _____    ______ ____
ROOT
ATOM      1  C   PHE A   1     -15.441 -21.107  -0.792  0.00  0.00    +0.239 C 
ATOM      2  N   PHE A   2     -15.359 -22.430  -0.826  0.00  0.00    -0.298 N 
ATOM      3  H   PHE A   2     -15.180 -22.967   0.046  0.00  0.00    +0.150 HD
ATOM      4  O   PHE A   1     -15.771 -20.449  -1.772  0.00  0.00    -0.274 OA
ENDROOT
BRANCH   1   5
ATOM      5  CA  PHE A   1     -15.102 -20.416   0.535  0.00  0.00    +0.149 C 
BRANCH   5   6
ATOM      6  N   PHE A   1     -15.774 -21.083   1.629  0.00  0.00    -0.238 NA
ATOM      7  H   PHE A   1     -15.251 -21.357   2.485  0.00  0.00    +0.142 HD
ENDBRANCH   5   6
BRANCH   5   8
ATOM      8  CB  PHE A   1     -13.584 -20.373   0.724  0.00  0.00    +0.053 C 
BRANCH   8   9
ATOM      9  CG  PHE A   1     -12.853 -19.810  -0.465  0.00  0.00    -0.020 A 
ATOM     10  CD2 PHE A   1     -12.949 -18.465  -0.777  0.00  0.00    -0.004 A 
ATOM     11  CE2 PHE A   1     -12.292 -17.942  -1.875  0.00  0.00    -0.000 A 
ATOM     12  CZ  PHE A   1     -11.532 -18.767  -2.683  0.00  0.00    -0.000 A 
ATOM     13  CE1 PHE A   1     -11.435 -20.112  -2.388  0.00  0.00    -0.000 A 
ATOM     14  CD1 PHE A   1     -12.097 -20.626  -1.279  0.00  0.00    -0.004 A 
ENDBRANCH   8   9
ENDBRANCH   5   8
ENDBRANCH   1   5
BRANCH   2  15
ATOM     15  CA  PHE A   2     -15.522 -23.125  -2.096  0.00  0.00    +0.141 C 
BRANCH  15  16
ATOM     16  C   PHE A   2     -16.983 -23.203  -2.566  0.00  0.00    +0.227 C 
ATOM     17  O   PHE A   2     -17.249 -23.358  -3.761  0.00  0.00    -0.286 OA
ENDBRANCH  15  16
BRANCH  15  18
ATOM     18  CB  PHE A   2     -14.817 -24.492  -2.079  0.00  0.00    +0.054 C 
BRANCH  18  19
ATOM     19  CG  PHE A   2     -13.310 -24.384  -2.192  0.00  0.00    -0.020 A 
ATOM     20  CD2 PHE A   2     -12.490 -24.644  -1.110  0.00  0.00    -0.004 A 
ATOM     21  CE2 PHE A   2     -11.104 -24.521  -1.217  0.00  0.00    -0.000 A 
ATOM     22  CZ  PHE A   2     -10.544 -24.118  -2.410  0.00  0.00    -0.000 A 
ATOM     23  CE1 PHE A   2     -11.350 -23.844  -3.496  0.00  0.00    -0.000 A 
ATOM     24  CD1 PHE A   2     -12.725 -23.968  -3.379  0.00  0.00    -0.004 A 
ENDBRANCH  18  19
ENDBRANCH  15  18
ENDBRANCH   2  15
TORSDOF 8
REMARK  Name = ../refined-set-2016/3qqa/3qqa_pocket.pdb
REMARK  237 active torsions:
REMARK  status: ('A' for Active; 'I' for Inactive)
REMARK    1  A    between atoms: _1  and  _3
REMARK    2  A    between atoms: _3  and  _4
REMARK    3  A    between atoms: _3  and  _6
REMARK    4  A    between atoms: _6  and  _7
REMARK    5  A    between atoms: _13  and  _15
REMARK    6  A    between atoms: _15  and  _16
REMARK    7  A    between atoms: _15  and  _18
REMARK    8  A    between atoms: _18  and  _19
REMARK    9  A    between atoms: _25  and  _27
REMARK   10  A    between atoms: _27  and  _28
REMARK   11  A    between atoms: _27  and  _30
REMARK   12  A    between atoms: _30  and  _31
REMARK   13  A    between atoms: _34  and  _36
REMARK   14  A    between atoms: _36  and  _37
REMARK   15  A    between atoms: _36  and  _39
REMARK   16  A    between atoms: _39  and  _40
REMARK   17  A    between atoms: _43  and  _45
REMARK   18  A    between atoms: _45  and  _46
REMARK   19  A    between atoms: _45  and  _48
REMARK   20  A    between atoms: _48  and  _49
REMARK   21  A    between atoms: _52  and  _54
REMARK   22  A    between atoms: _54  and  _55
REMARK   23  A    between atoms: _54  and  _57
REMARK   24  A    between atoms: _57  and  _58
REMARK   25  A    between atoms: _61  and  _63
REMARK   26  A    between atoms: _63  and  _64
REMARK   27  A    between atoms: _63  and  _66
REMARK   28  A    between atoms: _68  and  _70
REMARK   29  A    between atoms: _70  and  _71
REMARK   30  A    between atoms: _70  and  _73
REMARK   31  A    between atoms: _73  and  _74
REMARK   32  A    between atoms: _79  and  _81
REMARK   33  A    between atoms: _81  and  _82
REMARK   34  A    between atoms: _81  and  _84
REMARK   35  A    between atoms: _84  and  _85
REMARK   36  A    between atoms: _91  and  _93
REMARK   37  A    between atoms: _93  and  _94
REMARK   38  A    between atoms: _93  and  _96
REMARK   39  A    between atoms: _96  and  _97
REMARK   40  A    between atoms: _103  and  _105
REMARK   41  A    between atoms: _105  and  _106
REMARK   42  A    between atoms: _105  and  _108
REMARK   43  A    between atoms: _108  and  _109
REMARK   44  A    between atoms: _112  and  _114
REMARK   45  A    between atoms: _114  and  _115
REMARK   46  A    between atoms: _114  and  _117
REMARK   47  A    between atoms: _117  and  _118
REMARK   48  A    between atoms: _124  and  _126
REMARK   49  A    between atoms: _126  and  _127
REMARK   50  A    between atoms: _126  and  _129
REMARK   51  A    between atoms: _129  and  _130
REMARK   52  A    between atoms: _135  and  _137
REMARK   53  A    between atoms: _137  and  _138
REMARK   54  A    between atoms: _137  and  _140
REMARK   55  A    between atoms: _140  and  _141
REMARK   56  A    between atoms: _141  and  _142
REMARK   57  A    between atoms: _147  and  _149
REMARK   58  A    between atoms: _149  and  _150
REMARK   59  A    between atoms: _149  and  _152
REMARK   60  A    between atoms: _152  and  _153
REMARK   61  A    between atoms: _153  and  _154
REMARK   62  A    between atoms: _157  and  _159
REMARK   63  A    between atoms: _159  and  _160
REMARK   64  A    between atoms: _163  and  _165
REMARK   65  A    between atoms: _165  and  _166
REMARK   66  A    between atoms: _165  and  _168
REMARK   67  A    between atoms: _171  and  _173
REMARK   68  A    between atoms: _173  and  _174
REMARK   69  A    between atoms: _177  and  _179
REMARK   70  A    between atoms: _179  and  _180
REMARK   71  A    between atoms: _179  and  _182
REMARK   72  A    between atoms: _182  and  _183
REMARK   73  A    between atoms: _189  and  _191
REMARK   74  A    between atoms: _191  and  _192
REMARK   75  A    between atoms: _194  and  _196
REMARK   76  A    between atoms: _196  and  _197
REMARK   77  A    between atoms: _196  and  _199
REMARK   78  A    between atoms: _199  and  _200
REMARK   79  A    between atoms: _200  and  _201
REMARK   80  A    between atoms: _201  and  _202
REMARK   81  A    between atoms: _202  and  _203
REMARK   82  A    between atoms: _207  and  _209
REMARK   83  A    between atoms: _209  and  _210
REMARK   84  A    between atoms: _209  and  _212
REMARK   85  A    between atoms: _212  and  _213
REMARK   86  A    between atoms: _216  and  _218
REMARK   87  A    between atoms: _218  and  _219
REMARK   88  A    between atoms: _218  and  _221
REMARK   89  A    between atoms: _221  and  _222
REMARK   90  A    between atoms: _225  and  _227
REMARK   91  A    between atoms: _227  and  _228
REMARK   92  A    between atoms: _227  and  _230
REMARK   93  A    between atoms: _230  and  _231
REMARK   94  A    between atoms: _236  and  _237
REMARK   95  A    between atoms: _239  and  _241
REMARK   96  A    between atoms: _241  and  _242
REMARK   97  A    between atoms: _241  and  _244
REMARK   98  A    between atoms: _244  and  _245
REMARK   99  A    between atoms: _248  and  _250
REMARK  100  A    between atoms: _250  and  _251
REMARK  101  A    between atoms: _250  and  _253
REMARK  102  A    between atoms: _253  and  _254
REMARK  103  A    between atoms: _264  and  _266
REMARK  104  A    between atoms: _266  and  _267
REMARK  105  A    between atoms: _266  and  _269
REMARK  106  A    between atoms: _269  and  _270
REMARK  107  A    between atoms: _273  and  _275
REMARK  108  A    between atoms: _275  and  _276
REMARK  109  A    between atoms: _275  and  _278
REMARK  110  A    between atoms: _278  and  _279
REMARK  111  A    between atoms: _279  and  _280
REMARK  112  A    between atoms: _283  and  _285
REMARK  113  A    between atoms: _285  and  _286
REMARK  114  A    between atoms: _285  and  _288
REMARK  115  A    between atoms: _288  and  _289
REMARK  116  A    between atoms: _294  and  _296
REMARK  117  A    between atoms: _296  and  _297
REMARK  118  A    between atoms: _296  and  _299
REMARK  119  A    between atoms: _299  and  _300
REMARK  120  A    between atoms: _300  and  _301
REMARK  121  A    between atoms: _306  and  _308
REMARK  122  A    between atoms: _308  and  _309
REMARK  123  A    between atoms: _308  and  _311
REMARK  124  A    between atoms: _311  and  _312
REMARK  125  A    between atoms: _317  and  _319
REMARK  126  A    between atoms: _319  and  _320
REMARK  127  A    between atoms: _319  and  _322
REMARK  128  A    between atoms: _322  and  _323
REMARK  129  A    between atoms: _329  and  _331
REMARK  130  A    between atoms: _331  and  _332
REMARK  131  A    between atoms: _331  and  _334
REMARK  132  A    between atoms: _334  and  _335
REMARK  133  A    between atoms: _337  and  _339
REMARK  134  A    between atoms: _339  and  _340
REMARK  135  A    between atoms: _339  and  _342
REMARK  136  A    between atoms: _342  and  _343
REMARK  137  A    between atoms: _348  and  _349
REMARK  138  A    between atoms: _351  and  _353
REMARK  139  A    between atoms: _353  and  _354
REMARK  140  A    between atoms: _353  and  _356
REMARK  141  A    between atoms: _356  and  _357
REMARK  142  A    between atoms: _362  and  _364
REMARK  143  A    between atoms: _364  and  _365
REMARK  144  A    between atoms: _364  and  _367
REMARK  145  A    between atoms: _367  and  _368
REMARK  146  A    between atoms: _368  and  _369
REMARK  147  A    between atoms: _371  and  _373
REMARK  148  A    between atoms: _373  and  _374
REMARK  149  A    between atoms: _373  and  _376
REMARK  150  A    between atoms: _376  and  _377
REMARK  151  A    between atoms: _377  and  _378
REMARK  152  A    between atoms: _381  and  _383
REMARK  153  A    between atoms: _383  and  _384
REMARK  154  A    between atoms: _383  and  _386
REMARK  155  A    between atoms: _386  and  _387
REMARK  156  A    between atoms: _387  and  _388
REMARK  157  A    between atoms: _388  and  _389
REMARK  158  A    between atoms: _389  and  _390
REMARK  159  A    between atoms: _394  and  _396
REMARK  160  A    between atoms: _396  and  _397
REMARK  161  A    between atoms: _400  and  _402
REMARK  162  A    between atoms: _402  and  _403
REMARK  163  A    between atoms: _402  and  _405
REMARK  164  A    between atoms: _408  and  _410
REMARK  165  A    between atoms: _410  and  _411
REMARK  166  A    between atoms: _410  and  _413
REMARK  167  A    between atoms: _413  and  _414
REMARK  168  A    between atoms: _417  and  _419
REMARK  169  A    between atoms: _419  and  _420
REMARK  170  A    between atoms: _419  and  _422
REMARK  171  A    between atoms: _424  and  _426
REMARK  172  A    between atoms: _426  and  _427
REMARK  173  A    between atoms: _426  and  _429
REMARK  174  A    between atoms: _429  and  _430
REMARK  175  A    between atoms: _433  and  _435
REMARK  176  A    between atoms: _435  and  _436
REMARK  177  A    between atoms: _435  and  _438
REMARK  178  A    between atoms: _439  and  _440
REMARK  179  A    between atoms: _440  and  _441
REMARK  180  A    between atoms: _441  and  _442
REMARK  181  A    between atoms: _446  and  _448
REMARK  182  A    between atoms: _448  and  _449
REMARK  183  A    between atoms: _448  and  _451
REMARK  184  A    between atoms: _451  and  _452
REMARK  185  A    between atoms: _452  and  _453
REMARK  186  A    between atoms: _456  and  _458
REMARK  187  A    between atoms: _458  and  _459
REMARK  188  A    between atoms: _458  and  _461
REMARK  189  A    between atoms: _461  and  _462
REMARK  190  A    between atoms: _467  and  _469
REMARK  191  A    between atoms: _469  and  _470
REMARK  192  A    between atoms: _469  and  _472
REMARK  193  A    between atoms: _472  and  _473
REMARK  194  A    between atoms: _478  and  _480
REMARK  195  A    between atoms: _480  and  _481
REMARK  196  A    between atoms: _480  and  _483
REMARK  197  A    between atoms: _486  and  _488
REMARK  198  A    between atoms: _488  and  _489
REMARK  199  A    between atoms: _488  and  _491
REMARK  200  A    between atoms: _491  and  _492
REMARK  201  A    between atoms: _497  and  _498
REMARK  202  A    between atoms: _500  and  _502
REMARK  203  A    between atoms: _502  and  _503
REMARK  204  A    between atoms: _502  and  _505
REMARK  205  A    between atoms: _505  and  _506
REMARK  206  A    between atoms: _506  and  _507
REMARK  207  A    between atoms: _511  and  _512
REMARK  208  A    between atoms: _517  and  _519
REMARK  209  A    between atoms: _519  and  _520
REMARK  210  A    between atoms: _519  and  _522
REMARK  211  A    between atoms: _522  and  _523
REMARK  212  A    between atoms: _528  and  _529
REMARK  213  A    between atoms: _531  and  _533
REMARK  214  A    between atoms: _533  and  _534
REMARK  215  A    between atoms: _533  and  _536
REMARK  216  A    between atoms: _536  and  _537
REMARK  217  A    between atoms: _542  and  _544
REMARK  218  A    between atoms: _544  and  _545
REMARK  219  A    between atoms: _544  and  _547
REMARK  220  A    between atoms: _547  and  _548
REMARK  221  A    between atoms: _551  and  _553
REMARK  222  A    between atoms: _553  and  _554
REMARK  223  A    between atoms: _553  and  _556
REMARK  224  A    between atoms: _556  and  _557
REMARK  225  A    between atoms: _560  and  _562
REMARK  226  A    between atoms: _562  and  _563
REMARK  227  A    between atoms: _562  and  _565
REMARK  228  A    between atoms: _565  and  _566
REMARK  229  A    between atoms: _569  and  _571
REMARK  230  A    between atoms: _571  and  _572
REMARK  231  A    between atoms: _575  and  _577
REMARK  232  A    between atoms: _577  and  _578
REMARK  233  A    between atoms: _577  and  _580
REMARK  234  A    between atoms: _580  and  _581
REMARK  235  A    between atoms: _581  and  _582
REMARK  236  A    between atoms: _582  and  _583
REMARK  237  A    between atoms: _583  and  _584
REMARK                            x       y       z     vdW  Elec       q    Type
REMARK                         _______ _______ _______ _____ _____    ______ ____
ROOT
ATOM      1  CA  LEU A   2     -16.519 -20.150  -5.580  0.00  0.00    +0.149 C 
ENDROOT
BRANCH   1   3
ATOM      2  C   ILE A   1     -18.311 -19.281  -4.161  0.00  0.00    +0.238 C 
ATOM      3  N   LEU A   2     -17.197 -20.000  -4.293  0.00  0.00    -0.297 N 
ATOM      4  H   LEU A   2     -16.797 -20.469  -3.455  0.00  0.00    +0.150 HD
ATOM      5  O   ILE A   1     -18.855 -18.711  -5.115  0.00  0.00    -0.274 OA
BRANCH   2   6
ATOM      6  CA  ILE A   1     -18.919 -19.216  -2.745  0.00  0.00    +0.145 C 
BRANCH   6   7
ATOM      7  N   ILE A   1     -18.881 -20.528  -2.103  0.00  0.00    -0.238 NA
ATOM      8  H   ILE A   1     -18.345 -20.659  -1.221  0.00  0.00    +0.142 HD
ENDBRANCH   6   7
BRANCH   6   9
ATOM      9  CB  ILE A   1     -18.217 -18.142  -1.878  0.00  0.00    +0.025 C 
ATOM     10  CG2 ILE A   1     -18.108 -16.826  -2.610  0.00  0.00    +0.002 C 
BRANCH   9  11
ATOM     11  CG1 ILE A   1     -18.965 -17.943  -0.558  0.00  0.00    +0.002 C 
ATOM     12  CD1 ILE A   1     -18.197 -17.116   0.466  0.00  0.00    +0.000 C 
ENDBRANCH   9  11
ENDBRANCH   6   9
ENDBRANCH   2   6
ENDBRANCH   1   3
BRANCH   1  13
ATOM     13  C   LEU A   2     -17.399 -20.921  -6.581  0.00  0.00    +0.241 C 
ATOM     14  N   ASP A   3     -18.101 -21.938  -6.090  0.00  0.00    -0.298 N 
ATOM     15  H   ASP A   3     -17.924 -22.253  -5.115  0.00  0.00    +0.150 HD
ATOM     16  O   LEU A   2     -17.435 -20.597  -7.773  0.00  0.00    -0.273 OA
BRANCH  14  17
ATOM     17  CA  ASP A   3     -19.118 -22.626  -6.891  0.00  0.00    +0.148 C 
BRANCH  17  18
ATOM     18  C   ASP A   3     -20.004 -21.632  -7.631  0.00  0.00    +0.227 C 
ATOM     19  O   ASP A   3     -20.076 -21.654  -8.855  0.00  0.00    -0.286 OA
ENDBRANCH  17  18
BRANCH  17  20
ATOM     20  CB  ASP A   3     -19.997 -23.514  -6.013  0.00  0.00    +0.142 C 
BRANCH  20  21
ATOM     21  CG  ASP A   3     -19.330 -24.820  -5.656  0.00  0.00    +0.367 C 
ATOM     22  OD2 ASP A   3     -19.742 -25.447  -4.657  0.00  0.00    -0.246 OA
ATOM     23  OD1 ASP A   3     -18.396 -25.219  -6.379  0.00  0.00    -0.246 OA
ENDBRANCH  20  21
ENDBRANCH  17  20
ENDBRANCH  14  17
ENDBRANCH   1  13
BRANCH   1  24
ATOM     24  CB  LEU A   2     -15.167 -20.847  -5.389  0.00  0.00    +0.029 C 
BRANCH  24  25
ATOM     25  CG  LEU A   2     -13.996 -20.208  -6.134  0.00  0.00    +0.002 C 
ATOM     26  CD2 LEU A   2     -12.663 -20.840  -5.704  0.00  0.00    +0.000 C 
ATOM     27  CD1 LEU A   2     -13.981 -18.694  -5.908  0.00  0.00    +0.000 C 
ENDBRANCH  24  25
ENDBRANCH   1  24
TORSDOF 12
REMARK  Name = ../refined-set-2016/3qqa/3qqa_pocket.pdb
REMARK  237 active torsions:
REMARK  status: ('A' for Active; 'I' for Inactive)
REMARK    1  A    between atoms: _1  and  _3
REMARK    2  A    between atoms: _3  and  _4
REMARK    3  A    between atoms: _3  and  _6
REMARK    4  A    between atoms: _6  and  _7
REMARK    5  A    between atoms: _13  and  _15
REMARK    6  A    between atoms: _15  and  _16
REMARK    7  A    between atoms: _15  and  _18
REMARK    8  A    between atoms: _18  and  _19
REMARK    9  A    between atoms: _25  and  _27
REMARK   10  A    between atoms: _27  and  _28
REMARK   11  A    between atoms: _27  and  _30
REMARK   12  A    between atoms: _30  and  _31
REMARK   13  A    between atoms: _34  and  _36
REMARK   14  A    between atoms: _36  and  _37
REMARK   15  A    between atoms: _36  and  _39
REMARK   16  A    between atoms: _39  and  _40
REMARK   17  A    between atoms: _43  and  _45
REMARK   18  A    between atoms: _45  and  _46
REMARK   19  A    between atoms: _45  and  _48
REMARK   20  A    between atoms: _48  and  _49
REMARK   21  A    between atoms: _52  and  _54
REMARK   22  A    between atoms: _54  and  _55
REMARK   23  A    between atoms: _54  and  _57
REMARK   24  A    between atoms: _57  and  _58
REMARK   25  A    between atoms: _61  and  _63
REMARK   26  A    between atoms: _63  and  _64
REMARK   27  A    between atoms: _63  and  _66
REMARK   28  A    between atoms: _68  and  _70
REMARK   29  A    between atoms: _70  and  _71
REMARK   30  A    between atoms: _70  and  _73
REMARK   31  A    between atoms: _73  and  _74
REMARK   32  A    between atoms: _79  and  _81
REMARK   33  A    between atoms: _81  and  _82
REMARK   34  A    between atoms: _81  and  _84
REMARK   35  A    between atoms: _84  and  _85
REMARK   36  A    between atoms: _91  and  _93
REMARK   37  A    between atoms: _93  and  _94
REMARK   38  A    between atoms: _93  and  _96
REMARK   39  A    between atoms: _96  and  _97
REMARK   40  A    between atoms: _103  and  _105
REMARK   41  A    between atoms: _105  and  _106
REMARK   42  A    between atoms: _105  and  _108
REMARK   43  A    between atoms: _108  and  _109
REMARK   44  A    between atoms: _112  and  _114
REMARK   45  A    between atoms: _114  and  _115
REMARK   46  A    between atoms: _114  and  _117
REMARK   47  A    between atoms: _117  and  _118
REMARK   48  A    between atoms: _124  and  _126
REMARK   49  A    between atoms: _126  and  _127
REMARK   50  A    between atoms: _126  and  _129
REMARK   51  A    between atoms: _129  and  _130
REMARK   52  A    between atoms: _135  and  _137
REMARK   53  A    between atoms: _137  and  _138
REMARK   54  A    between atoms: _137  and  _140
REMARK   55  A    between atoms: _140  and  _141
REMARK   56  A    between atoms: _141  and  _142
REMARK   57  A    between atoms: _147  and  _149
REMARK   58  A    between atoms: _149  and  _150
REMARK   59  A    between atoms: _149  and  _152
REMARK   60  A    between atoms: _152  and  _153
REMARK   61  A    between atoms: _153  and  _154
REMARK   62  A    between atoms: _157  and  _159
REMARK   63  A    between atoms: _159  and  _160
REMARK   64  A    between atoms: _163  and  _165
REMARK   65  A    between atoms: _165  and  _166
REMARK   66  A    between atoms: _165  and  _168
REMARK   67  A    between atoms: _171  and  _173
REMARK   68  A    between atoms: _173  and  _174
REMARK   69  A    between atoms: _177  and  _179
REMARK   70  A    between atoms: _179  and  _180
REMARK   71  A    between atoms: _179  and  _182
REMARK   72  A    between atoms: _182  and  _183
REMARK   73  A    between atoms: _189  and  _191
REMARK   74  A    between atoms: _191  and  _192
REMARK   75  A    between atoms: _194  and  _196
REMARK   76  A    between atoms: _196  and  _197
REMARK   77  A    between atoms: _196  and  _199
REMARK   78  A    between atoms: _199  and  _200
REMARK   79  A    between atoms: _200  and  _201
REMARK   80  A    between atoms: _201  and  _202
REMARK   81  A    between atoms: _202  and  _203
REMARK   82  A    between atoms: _207  and  _209
REMARK   83  A    between atoms: _209  and  _210
REMARK   84  A    between atoms: _209  and  _212
REMARK   85  A    between atoms: _212  and  _213
REMARK   86  A    between atoms: _216  and  _218
REMARK   87  A    between atoms: _218  and  _219
REMARK   88  A    between atoms: _218  and  _221
REMARK   89  A    between atoms: _221  and  _222
REMARK   90  A    between atoms: _225  and  _227
REMARK   91  A    between atoms: _227  and  _228
REMARK   92  A    between atoms: _227  and  _230
REMARK   93  A    between atoms: _230  and  _231
REMARK   94  A    between atoms: _236  and  _237
REMARK   95  A    between atoms: _239  and  _241
REMARK   96  A    between atoms: _241  and  _242
REMARK   97  A    between atoms: _241  and  _244
REMARK   98  A    between atoms: _244  and  _245
REMARK   99  A    between atoms: _248  and  _250
REMARK  100  A    between atoms: _250  and  _251
REMARK  101  A    between atoms: _250  and  _253
REMARK  102  A    between atoms: _253  and  _254
REMARK  103  A    between atoms: _264  and  _266
REMARK  104  A    between atoms: _266  and  _267
REMARK  105  A    between atoms: _266  and  _269
REMARK  106  A    between atoms: _269  and  _270
REMARK  107  A    between atoms: _273  and  _275
REMARK  108  A    between atoms: _275  and  _276
REMARK  109  A    between atoms: _275  and  _278
REMARK  110  A    between atoms: _278  and  _279
REMARK  111  A    between atoms: _279  and  _280
REMARK  112  A    between atoms: _283  and  _285
REMARK  113  A    between atoms: _285  and  _286
REMARK  114  A    between atoms: _285  and  _288
REMARK  115  A    between atoms: _288  and  _289
REMARK  116  A    between atoms: _294  and  _296
REMARK  117  A    between atoms: _296  and  _297
REMARK  118  A    between atoms: _296  and  _299
REMARK  119  A    between atoms: _299  and  _300
REMARK  120  A    between atoms: _300  and  _301
REMARK  121  A    between atoms: _306  and  _308
REMARK  122  A    between atoms: _308  and  _309
REMARK  123  A    between atoms: _308  and  _311
REMARK  124  A    between atoms: _311  and  _312
REMARK  125  A    between atoms: _317  and  _319
REMARK  126  A    between atoms: _319  and  _320
REMARK  127  A    between atoms: _319  and  _322
REMARK  128  A    between atoms: _322  and  _323
REMARK  129  A    between atoms: _329  and  _331
REMARK  130  A    between atoms: _331  and  _332
REMARK  131  A    between atoms: _331  and  _334
REMARK  132  A    between atoms: _334  and  _335
REMARK  133  A    between atoms: _337  and  _339
REMARK  134  A    between atoms: _339  and  _340
REMARK  135  A    between atoms: _339  and  _342
REMARK  136  A    between atoms: _342  and  _343
REMARK  137  A    between atoms: _348  and  _349
REMARK  138  A    between atoms: _351  and  _353
REMARK  139  A    between atoms: _353  and  _354
REMARK  140  A    between atoms: _353  and  _356
REMARK  141  A    between atoms: _356  and  _357
REMARK  142  A    between atoms: _362  and  _364
REMARK  143  A    between atoms: _364  and  _365
REMARK  144  A    between atoms: _364  and  _367
REMARK  145  A    between atoms: _367  and  _368
REMARK  146  A    between atoms: _368  and  _369
REMARK  147  A    between atoms: _371  and  _373
REMARK  148  A    between atoms: _373  and  _374
REMARK  149  A    between atoms: _373  and  _376
REMARK  150  A    between atoms: _376  and  _377
REMARK  151  A    between atoms: _377  and  _378
REMARK  152  A    between atoms: _381  and  _383
REMARK  153  A    between atoms: _383  and  _384
REMARK  154  A    between atoms: _383  and  _386
REMARK  155  A    between atoms: _386  and  _387
REMARK  156  A    between atoms: _387  and  _388
REMARK  157  A    between atoms: _388  and  _389
REMARK  158  A    between atoms: _389  and  _390
REMARK  159  A    between atoms: _394  and  _396
REMARK  160  A    between atoms: _396  and  _397
REMARK  161  A    between atoms: _400  and  _402
REMARK  162  A    between atoms: _402  and  _403
REMARK  163  A    between atoms: _402  and  _405
REMARK  164  A    between atoms: _408  and  _410
REMARK  165  A    between atoms: _410  and  _411
REMARK  166  A    between atoms: _410  and  _413
REMARK  167  A    between atoms: _413  and  _414
REMARK  168  A    between atoms: _417  and  _419
REMARK  169  A    between atoms: _419  and  _420
REMARK  170  A    between atoms: _419  and  _422
REMARK  171  A    between atoms: _424  and  _426
REMARK  172  A    between atoms: _426  and  _427
REMARK  173  A    between atoms: _426  and  _429
REMARK  174  A    between atoms: _429  and  _430
REMARK  175  A    between atoms: _433  and  _435
REMARK  176  A    between atoms: _435  and  _436
REMARK  177  A    between atoms: _435  and  _438
REMARK  178  A    between atoms: _439  and  _440
REMARK  179  A    between atoms: _440  and  _441
REMARK  180  A    between atoms: _441  and  _442
REMARK  181  A    between atoms: _446  and  _448
REMARK  182  A    between atoms: _448  and  _449
REMARK  183  A    between atoms: _448  and  _451
REMARK  184  A    between atoms: _451  and  _452
REMARK  185  A    between atoms: _452  and  _453
REMARK  186  A    between atoms: _456  and  _458
REMARK  187  A    between atoms: _458  and  _459
REMARK  188  A    between atoms: _458  and  _461
REMARK  189  A    between atoms: _461  and  _462
REMARK  190  A    between atoms: _467  and  _469
REMARK  191  A    between atoms: _469  and  _470
REMARK  192  A    between atoms: _469  and  _472
REMARK  193  A    between atoms: _472  and  _473
REMARK  194  A    between atoms: _478  and  _480
REMARK  195  A    between atoms: _480  and  _481
REMARK  196  A    between atoms: _480  and  _483
REMARK  197  A    between atoms: _486  and  _488
REMARK  198  A    between atoms: _488  and  _489
REMARK  199  A    between atoms: _488  and  _491
REMARK  200  A    between atoms: _491  and  _492
REMARK  201  A    between atoms: _497  and  _498
REMARK  202  A    between atoms: _500  and  _502
REMARK  203  A    between atoms: _502  and  _503
REMARK  204  A    between atoms: _502  and  _505
REMARK  205  A    between atoms: _505  and  _506
REMARK  206  A    between atoms: _506  and  _507
REMARK  207  A    between atoms: _511  and  _512
REMARK  208  A    between atoms: _517  and  _519
REMARK  209  A    between atoms: _519  and  _520
REMARK  210  A    between atoms: _519  and  _522
REMARK  211  A    between atoms: _522  and  _523
REMARK  212  A    between atoms: _528  and  _529
REMARK  213  A    between atoms: _531  and  _533
REMARK  214  A    between atoms: _533  and  _534
REMARK  215  A    between atoms: _533  and  _536
REMARK  216  A    between atoms: _536  and  _537
REMARK  217  A    between atoms: _542  and  _544
REMARK  218  A    between atoms: _544  and  _545
REMARK  219  A    between atoms: _544  and  _547
REMARK  220  A    between atoms: _547  and  _548
REMARK  221  A    between atoms: _551  and  _553
REMARK  222  A    between atoms: _553  and  _554
REMARK  223  A    between atoms: _553  and  _556
REMARK  224  A    between atoms: _556  and  _557
REMARK  225  A    between atoms: _560  and  _562
REMARK  226  A    between atoms: _562  and  _563
REMARK  227  A    between atoms: _562  and  _565
REMARK  228  A    between atoms: _565  and  _566
REMARK  229  A    between atoms: _569  and  _571
REMARK  230  A    between atoms: _571  and  _572
REMARK  231  A    between atoms: _575  and  _577
REMARK  232  A    between atoms: _577  and  _578
REMARK  233  A    between atoms: _577  and  _580
REMARK  234  A    between atoms: _580  and  _581
REMARK  235  A    between atoms: _581  and  _582
REMARK  236  A    between atoms: _582  and  _583
REMARK  237  A    between atoms: _583  and  _584
REMARK                            x       y       z     vdW  Elec       q    Type
REMARK                         _______ _______ _______ _____ _____    ______ ____
ROOT
ATOM      1  C   ILE A   1     -18.614 -18.065 -10.304  0.00  0.00    +0.238 C 
ATOM      2  N   CYS A   2     -18.130 -19.302 -10.239  0.00  0.00    -0.298 N 
ATOM      3  H   CYS A   2     -17.996 -19.750  -9.310  0.00  0.00    +0.150 HD
ATOM      4  O   ILE A   1     -18.771 -17.455 -11.366  0.00  0.00    -0.274 OA
ENDROOT
BRANCH   1   5
ATOM      5  CA  ILE A   1     -18.993 -17.418  -8.973  0.00  0.00    +0.145 C 
BRANCH   5   6
ATOM      6  N   ILE A   1     -19.701 -18.362  -8.122  0.00  0.00    -0.238 NA
ATOM      7  H   ILE A   1     -19.293 -18.635  -7.205  0.00  0.00    +0.142 HD
ENDBRANCH   5   6
BRANCH   5   8
ATOM      8  CB  ILE A   1     -17.760 -16.809  -8.268  0.00  0.00    +0.025 C 
ATOM      9  CG2 ILE A   1     -16.839 -16.139  -9.271  0.00  0.00    +0.002 C 
BRANCH   8  10
ATOM     10  CG1 ILE A   1     -18.210 -15.755  -7.258  0.00  0.00    +0.002 C 
ATOM     11  CD1 ILE A   1     -17.231 -15.504  -6.160  0.00  0.00    +0.000 C 
ENDBRANCH   8  10
ENDBRANCH   5   8
ENDBRANCH   1   5
BRANCH   2  12
ATOM     12  CA  CYS A   2     -17.784 -20.040 -11.447  0.00  0.00    +0.149 C 
BRANCH  12  13
ATOM     13  CB  CYS A   2     -17.154 -21.396 -11.120  0.00  0.00    +0.096 C 
ATOM     14  SG  CYS A   2     -15.480 -21.198 -10.507  0.00  0.00    -0.080 S 
ENDBRANCH  12  13
BRANCH  12  15
ATOM     15  C   CYS A   2     -18.990 -20.233 -12.339  0.00  0.00    +0.228 C 
ATOM     16  O   CYS A   2     -18.898 -20.040 -13.549  0.00  0.00    -0.286 OA
ENDBRANCH  12  15
ENDBRANCH   2  12
TORSDOF 7
REMARK  Name = ../refined-set-2016/3qqa/3qqa_pocket.pdb
REMARK  237 active torsions:
REMARK  status: ('A' for Active; 'I' for Inactive)
REMARK    1  A    between atoms: _1  and  _3
REMARK    2  A    between atoms: _3  and  _4
REMARK    3  A    between atoms: _3  and  _6
REMARK    4  A    between atoms: _6  and  _7
REMARK    5  A    between atoms: _13  and  _15
REMARK    6  A    between atoms: _15  and  _16
REMARK    7  A    between atoms: _15  and  _18
REMARK    8  A    between atoms: _18  and  _19
REMARK    9  A    between atoms: _25  and  _27
REMARK   10  A    between atoms: _27  and  _28
REMARK   11  A    between atoms: _27  and  _30
REMARK   12  A    between atoms: _30  and  _31
REMARK   13  A    between atoms: _34  and  _36
REMARK   14  A    between atoms: _36  and  _37
REMARK   15  A    between atoms: _36  and  _39
REMARK   16  A    between atoms: _39  and  _40
REMARK   17  A    between atoms: _43  and  _45
REMARK   18  A    between atoms: _45  and  _46
REMARK   19  A    between atoms: _45  and  _48
REMARK   20  A    between atoms: _48  and  _49
REMARK   21  A    between atoms: _52  and  _54
REMARK   22  A    between atoms: _54  and  _55
REMARK   23  A    between atoms: _54  and  _57
REMARK   24  A    between atoms: _57  and  _58
REMARK   25  A    between atoms: _61  and  _63
REMARK   26  A    between atoms: _63  and  _64
REMARK   27  A    between atoms: _63  and  _66
REMARK   28  A    between atoms: _68  and  _70
REMARK   29  A    between atoms: _70  and  _71
REMARK   30  A    between atoms: _70  and  _73
REMARK   31  A    between atoms: _73  and  _74
REMARK   32  A    between atoms: _79  and  _81
REMARK   33  A    between atoms: _81  and  _82
REMARK   34  A    between atoms: _81  and  _84
REMARK   35  A    between atoms: _84  and  _85
REMARK   36  A    between atoms: _91  and  _93
REMARK   37  A    between atoms: _93  and  _94
REMARK   38  A    between atoms: _93  and  _96
REMARK   39  A    between atoms: _96  and  _97
REMARK   40  A    between atoms: _103  and  _105
REMARK   41  A    between atoms: _105  and  _106
REMARK   42  A    between atoms: _105  and  _108
REMARK   43  A    between atoms: _108  and  _109
REMARK   44  A    between atoms: _112  and  _114
REMARK   45  A    between atoms: _114  and  _115
REMARK   46  A    between atoms: _114  and  _117
REMARK   47  A    between atoms: _117  and  _118
REMARK   48  A    between atoms: _124  and  _126
REMARK   49  A    between atoms: _126  and  _127
REMARK   50  A    between atoms: _126  and  _129
REMARK   51  A    between atoms: _129  and  _130
REMARK   52  A    between atoms: _135  and  _137
REMARK   53  A    between atoms: _137  and  _138
REMARK   54  A    between atoms: _137  and  _140
REMARK   55  A    between atoms: _140  and  _141
REMARK   56  A    between atoms: _141  and  _142
REMARK   57  A    between atoms: _147  and  _149
REMARK   58  A    between atoms: _149  and  _150
REMARK   59  A    between atoms: _149  and  _152
REMARK   60  A    between atoms: _152  and  _153
REMARK   61  A    between atoms: _153  and  _154
REMARK   62  A    between atoms: _157  and  _159
REMARK   63  A    between atoms: _159  and  _160
REMARK   64  A    between atoms: _163  and  _165
REMARK   65  A    between atoms: _165  and  _166
REMARK   66  A    between atoms: _165  and  _168
REMARK   67  A    between atoms: _171  and  _173
REMARK   68  A    between atoms: _173  and  _174
REMARK   69  A    between atoms: _177  and  _179
REMARK   70  A    between atoms: _179  and  _180
REMARK   71  A    between atoms: _179  and  _182
REMARK   72  A    between atoms: _182  and  _183
REMARK   73  A    between atoms: _189  and  _191
REMARK   74  A    between atoms: _191  and  _192
REMARK   75  A    between atoms: _194  and  _196
REMARK   76  A    between atoms: _196  and  _197
REMARK   77  A    between atoms: _196  and  _199
REMARK   78  A    between atoms: _199  and  _200
REMARK   79  A    between atoms: _200  and  _201
REMARK   80  A    between atoms: _201  and  _202
REMARK   81  A    between atoms: _202  and  _203
REMARK   82  A    between atoms: _207  and  _209
REMARK   83  A    between atoms: _209  and  _210
REMARK   84  A    between atoms: _209  and  _212
REMARK   85  A    between atoms: _212  and  _213
REMARK   86  A    between atoms: _216  and  _218
REMARK   87  A    between atoms: _218  and  _219
REMARK   88  A    between atoms: _218  and  _221
REMARK   89  A    between atoms: _221  and  _222
REMARK   90  A    between atoms: _225  and  _227
REMARK   91  A    between atoms: _227  and  _228
REMARK   92  A    between atoms: _227  and  _230
REMARK   93  A    between atoms: _230  and  _231
REMARK   94  A    between atoms: _236  and  _237
REMARK   95  A    between atoms: _239  and  _241
REMARK   96  A    between atoms: _241  and  _242
REMARK   97  A    between atoms: _241  and  _244
REMARK   98  A    between atoms: _244  and  _245
REMARK   99  A    between atoms: _248  and  _250
REMARK  100  A    between atoms: _250  and  _251
REMARK  101  A    between atoms: _250  and  _253
REMARK  102  A    between atoms: _253  and  _254
REMARK  103  A    between atoms: _264  and  _266
REMARK  104  A    between atoms: _266  and  _267
REMARK  105  A    between atoms: _266  and  _269
REMARK  106  A    between atoms: _269  and  _270
REMARK  107  A    between atoms: _273  and  _275
REMARK  108  A    between atoms: _275  and  _276
REMARK  109  A    between atoms: _275  and  _278
REMARK  110  A    between atoms: _278  and  _279
REMARK  111  A    between atoms: _279  and  _280
REMARK  112  A    between atoms: _283  and  _285
REMARK  113  A    between atoms: _285  and  _286
REMARK  114  A    between atoms: _285  and  _288
REMARK  115  A    between atoms: _288  and  _289
REMARK  116  A    between atoms: _294  and  _296
REMARK  117  A    between atoms: _296  and  _297
REMARK  118  A    between atoms: _296  and  _299
REMARK  119  A    between atoms: _299  and  _300
REMARK  120  A    between atoms: _300  and  _301
REMARK  121  A    between atoms: _306  and  _308
REMARK  122  A    between atoms: _308  and  _309
REMARK  123  A    between atoms: _308  and  _311
REMARK  124  A    between atoms: _311  and  _312
REMARK  125  A    between atoms: _317  and  _319
REMARK  126  A    between atoms: _319  and  _320
REMARK  127  A    between atoms: _319  and  _322
REMARK  128  A    between atoms: _322  and  _323
REMARK  129  A    between atoms: _329  and  _331
REMARK  130  A    between atoms: _331  and  _332
REMARK  131  A    between atoms: _331  and  _334
REMARK  132  A    between atoms: _334  and  _335
REMARK  133  A    between atoms: _337  and  _339
REMARK  134  A    between atoms: _339  and  _340
REMARK  135  A    between atoms: _339  and  _342
REMARK  136  A    between atoms: _342  and  _343
REMARK  137  A    between atoms: _348  and  _349
REMARK  138  A    between atoms: _351  and  _353
REMARK  139  A    between atoms: _353  and  _354
REMARK  140  A    between atoms: _353  and  _356
REMARK  141  A    between atoms: _356  and  _357
REMARK  142  A    between atoms: _362  and  _364
REMARK  143  A    between atoms: _364  and  _365
REMARK  144  A    between atoms: _364  and  _367
REMARK  145  A    between atoms: _367  and  _368
REMARK  146  A    between atoms: _368  and  _369
REMARK  147  A    between atoms: _371  and  _373
REMARK  148  A    between atoms: _373  and  _374
REMARK  149  A    between atoms: _373  and  _376
REMARK  150  A    between atoms: _376  and  _377
REMARK  151  A    between atoms: _377  and  _378
REMARK  152  A    between atoms: _381  and  _383
REMARK  153  A    between atoms: _383  and  _384
REMARK  154  A    between atoms: _383  and  _386
REMARK  155  A    between atoms: _386  and  _387
REMARK  156  A    between atoms: _387  and  _388
REMARK  157  A    between atoms: _388  and  _389
REMARK  158  A    between atoms: _389  and  _390
REMARK  159  A    between atoms: _394  and  _396
REMARK  160  A    between atoms: _396  and  _397
REMARK  161  A    between atoms: _400  and  _402
REMARK  162  A    between atoms: _402  and  _403
REMARK  163  A    between atoms: _402  and  _405
REMARK  164  A    between atoms: _408  and  _410
REMARK  165  A    between atoms: _410  and  _411
REMARK  166  A    between atoms: _410  and  _413
REMARK  167  A    between atoms: _413  and  _414
REMARK  168  A    between atoms: _417  and  _419
REMARK  169  A    between atoms: _419  and  _420
REMARK  170  A    between atoms: _419  and  _422
REMARK  171  A    between atoms: _424  and  _426
REMARK  172  A    between atoms: _426  and  _427
REMARK  173  A    between atoms: _426  and  _429
REMARK  174  A    between atoms: _429  and  _430
REMARK  175  A    between atoms: _433  and  _435
REMARK  176  A    between atoms: _435  and  _436
REMARK  177  A    between atoms: _435  and  _438
REMARK  178  A    between atoms: _439  and  _440
REMARK  179  A    between atoms: _440  and  _441
REMARK  180  A    between atoms: _441  and  _442
REMARK  181  A    between atoms: _446  and  _448
REMARK  182  A    between atoms: _448  and  _449
REMARK  183  A    between atoms: _448  and  _451
REMARK  184  A    between atoms: _451  and  _452
REMARK  185  A    between atoms: _452  and  _453
REMARK  186  A    between atoms: _456  and  _458
REMARK  187  A    between atoms: _458  and  _459
REMARK  188  A    between atoms: _458  and  _461
REMARK  189  A    between atoms: _461  and  _462
REMARK  190  A    between atoms: _467  and  _469
REMARK  191  A    between atoms: _469  and  _470
REMARK  192  A    between atoms: _469  and  _472
REMARK  193  A    between atoms: _472  and  _473
REMARK  194  A    between atoms: _478  and  _480
REMARK  195  A    between atoms: _480  and  _481
REMARK  196  A    between atoms: _480  and  _483
REMARK  197  A    between atoms: _486  and  _488
REMARK  198  A    between atoms: _488  and  _489
REMARK  199  A    between atoms: _488  and  _491
REMARK  200  A    between atoms: _491  and  _492
REMARK  201  A    between atoms: _497  and  _498
REMARK  202  A    between atoms: _500  and  _502
REMARK  203  A    between atoms: _502  and  _503
REMARK  204  A    between atoms: _502  and  _505
REMARK  205  A    between atoms: _505  and  _506
REMARK  206  A    between atoms: _506  and  _507
REMARK  207  A    between atoms: _511  and  _512
REMARK  208  A    between atoms: _517  and  _519
REMARK  209  A    between atoms: _519  and  _520
REMARK  210  A    between atoms: _519  and  _522
REMARK  211  A    between atoms: _522  and  _523
REMARK  212  A    between atoms: _528  and  _529
REMARK  213  A    between atoms: _531  and  _533
REMARK  214  A    between atoms: _533  and  _534
REMARK  215  A    between atoms: _533  and  _536
REMARK  216  A    between atoms: _536  and  _537
REMARK  217  A    between atoms: _542  and  _544
REMARK  218  A    between atoms: _544  and  _545
REMARK  219  A    between atoms: _544  and  _547
REMARK  220  A    between atoms: _547  and  _548
REMARK  221  A    between atoms: _551  and  _553
REMARK  222  A    between atoms: _553  and  _554
REMARK  223  A    between atoms: _553  and  _556
REMARK  224  A    between atoms: _556  and  _557
REMARK  225  A    between atoms: _560  and  _562
REMARK  226  A    between atoms: _562  and  _563
REMARK  227  A    between atoms: _562  and  _565
REMARK  228  A    between atoms: _565  and  _566
REMARK  229  A    between atoms: _569  and  _571
REMARK  230  A    between atoms: _571  and  _572
REMARK  231  A    between atoms: _575  and  _577
REMARK  232  A    between atoms: _577  and  _578
REMARK  233  A    between atoms: _577  and  _580
REMARK  234  A    between atoms: _580  and  _581
REMARK  235  A    between atoms: _581  and  _582
REMARK  236  A    between atoms: _582  and  _583
REMARK  237  A    between atoms: _583  and  _584
REMARK                            x       y       z     vdW  Elec       q    Type
REMARK                         _______ _______ _______ _____ _____    ______ ____
ROOT
ATOM      1  C   HIS A   1     -19.127 -17.292 -16.293  0.00  0.00    +0.239 C 
ATOM      2  N   PHE A   2     -19.337 -18.588 -16.110  0.00  0.00    -0.298 N 
ATOM      3  H   PHE A   2     -19.321 -18.962 -15.140  0.00  0.00    +0.150 HD
ATOM      4  O   HIS A   1     -19.074 -16.776 -17.399  0.00  0.00    -0.274 OA
ENDROOT
BRANCH   1   5
ATOM      5  CA  HIS A   1     -18.940 -16.451 -15.030  0.00  0.00    +0.151 C 
BRANCH   5   6
ATOM      6  N   HIS A   1     -19.851 -16.846 -13.963  0.00  0.00    -0.238 NA
ATOM      7  H   HIS A   1     -19.475 -17.260 -13.086  0.00  0.00    +0.142 HD
ENDBRANCH   5   6
BRANCH   5   8
ATOM      8  CB  HIS A   1     -17.484 -16.502 -14.559  0.00  0.00    +0.074 C 
BRANCH   8   9
ATOM      9  CG  HIS A   1     -17.117 -15.398 -13.613  0.00  0.00    +0.082 A 
ATOM     10  ND1 HIS A   1     -15.952 -15.403 -12.876  0.00  0.00    -0.227 NA
ATOM     11  CE1 HIS A   1     -15.899 -14.310 -12.134  0.00  0.00    +0.199 A 
ATOM     12  NE2 HIS A   1     -16.989 -13.599 -12.361  0.00  0.00    -0.221 NA
ATOM     13  CD2 HIS A   1     -17.769 -14.259 -13.279  0.00  0.00    +0.115 A 
ENDBRANCH   8   9
ENDBRANCH   5   8
ENDBRANCH   1   5
BRANCH   2  14
ATOM     14  CA  PHE A   2     -19.589 -19.512 -17.207  0.00  0.00    +0.141 C 
BRANCH  14  15
ATOM     15  C   PHE A   2     -20.777 -19.051 -18.074  0.00  0.00    +0.227 C 
ATOM     16  O   PHE A   2     -20.636 -18.897 -19.283  0.00  0.00    -0.286 OA
ENDBRANCH  14  15
BRANCH  14  17
ATOM     17  CB  PHE A   2     -19.815 -20.933 -16.663  0.00  0.00    +0.054 C 
BRANCH  17  18
ATOM     18  CG  PHE A   2     -20.064 -21.964 -17.734  0.00  0.00    -0.020 A 
ATOM     19  CD2 PHE A   2     -19.076 -22.875 -18.080  0.00  0.00    -0.004 A 
ATOM     20  CE2 PHE A   2     -19.304 -23.829 -19.067  0.00  0.00    -0.000 A 
ATOM     21  CZ  PHE A   2     -20.528 -23.873 -19.724  0.00  0.00    -0.000 A 
ATOM     22  CE1 PHE A   2     -21.519 -22.966 -19.391  0.00  0.00    -0.000 A 
ATOM     23  CD1 PHE A   2     -21.289 -22.021 -18.398  0.00  0.00    -0.004 A 
ENDBRANCH  17  18
ENDBRANCH  14  17
ENDBRANCH   2  14
TORSDOF 8
REMARK  Name = ../refined-set-2016/3qqa/3qqa_pocket.pdb
REMARK  237 active torsions:
REMARK  status: ('A' for Active; 'I' for Inactive)
REMARK    1  A    between atoms: _1  and  _3
REMARK    2  A    between atoms: _3  and  _4
REMARK    3  A    between atoms: _3  and  _6
REMARK    4  A    between atoms: _6  and  _7
REMARK    5  A    between atoms: _13  and  _15
REMARK    6  A    between atoms: _15  and  _16
REMARK    7  A    between atoms: _15  and  _18
REMARK    8  A    between atoms: _18  and  _19
REMARK    9  A    between atoms: _25  and  _27
REMARK   10  A    between atoms: _27  and  _28
REMARK   11  A    between atoms: _27  and  _30
REMARK   12  A    between atoms: _30  and  _31
REMARK   13  A    between atoms: _34  and  _36
REMARK   14  A    between atoms: _36  and  _37
REMARK   15  A    between atoms: _36  and  _39
REMARK   16  A    between atoms: _39  and  _40
REMARK   17  A    between atoms: _43  and  _45
REMARK   18  A    between atoms: _45  and  _46
REMARK   19  A    between atoms: _45  and  _48
REMARK   20  A    between atoms: _48  and  _49
REMARK   21  A    between atoms: _52  and  _54
REMARK   22  A    between atoms: _54  and  _55
REMARK   23  A    between atoms: _54  and  _57
REMARK   24  A    between atoms: _57  and  _58
REMARK   25  A    between atoms: _61  and  _63
REMARK   26  A    between atoms: _63  and  _64
REMARK   27  A    between atoms: _63  and  _66
REMARK   28  A    between atoms: _68  and  _70
REMARK   29  A    between atoms: _70  and  _71
REMARK   30  A    between atoms: _70  and  _73
REMARK   31  A    between atoms: _73  and  _74
REMARK   32  A    between atoms: _79  and  _81
REMARK   33  A    between atoms: _81  and  _82
REMARK   34  A    between atoms: _81  and  _84
REMARK   35  A    between atoms: _84  and  _85
REMARK   36  A    between atoms: _91  and  _93
REMARK   37  A    between atoms: _93  and  _94
REMARK   38  A    between atoms: _93  and  _96
REMARK   39  A    between atoms: _96  and  _97
REMARK   40  A    between atoms: _103  and  _105
REMARK   41  A    between atoms: _105  and  _106
REMARK   42  A    between atoms: _105  and  _108
REMARK   43  A    between atoms: _108  and  _109
REMARK   44  A    between atoms: _112  and  _114
REMARK   45  A    between atoms: _114  and  _115
REMARK   46  A    between atoms: _114  and  _117
REMARK   47  A    between atoms: _117  and  _118
REMARK   48  A    between atoms: _124  and  _126
REMARK   49  A    between atoms: _126  and  _127
REMARK   50  A    between atoms: _126  and  _129
REMARK   51  A    between atoms: _129  and  _130
REMARK   52  A    between atoms: _135  and  _137
REMARK   53  A    between atoms: _137  and  _138
REMARK   54  A    between atoms: _137  and  _140
REMARK   55  A    between atoms: _140  and  _141
REMARK   56  A    between atoms: _141  and  _142
REMARK   57  A    between atoms: _147  and  _149
REMARK   58  A    between atoms: _149  and  _150
REMARK   59  A    between atoms: _149  and  _152
REMARK   60  A    between atoms: _152  and  _153
REMARK   61  A    between atoms: _153  and  _154
REMARK   62  A    between atoms: _157  and  _159
REMARK   63  A    between atoms: _159  and  _160
REMARK   64  A    between atoms: _163  and  _165
REMARK   65  A    between atoms: _165  and  _166
REMARK   66  A    between atoms: _165  and  _168
REMARK   67  A    between atoms: _171  and  _173
REMARK   68  A    between atoms: _173  and  _174
REMARK   69  A    between atoms: _177  and  _179
REMARK   70  A    between atoms: _179  and  _180
REMARK   71  A    between atoms: _179  and  _182
REMARK   72  A    between atoms: _182  and  _183
REMARK   73  A    between atoms: _189  and  _191
REMARK   74  A    between atoms: _191  and  _192
REMARK   75  A    between atoms: _194  and  _196
REMARK   76  A    between atoms: _196  and  _197
REMARK   77  A    between atoms: _196  and  _199
REMARK   78  A    between atoms: _199  and  _200
REMARK   79  A    between atoms: _200  and  _201
REMARK   80  A    between atoms: _201  and  _202
REMARK   81  A    between atoms: _202  and  _203
REMARK   82  A    between atoms: _207  and  _209
REMARK   83  A    between atoms: _209  and  _210
REMARK   84  A    between atoms: _209  and  _212
REMARK   85  A    between atoms: _212  and  _213
REMARK   86  A    between atoms: _216  and  _218
REMARK   87  A    between atoms: _218  and  _219
REMARK   88  A    between atoms: _218  and  _221
REMARK   89  A    between atoms: _221  and  _222
REMARK   90  A    between atoms: _225  and  _227
REMARK   91  A    between atoms: _227  and  _228
REMARK   92  A    between atoms: _227  and  _230
REMARK   93  A    between atoms: _230  and  _231
REMARK   94  A    between atoms: _236  and  _237
REMARK   95  A    between atoms: _239  and  _241
REMARK   96  A    between atoms: _241  and  _242
REMARK   97  A    between atoms: _241  and  _244
REMARK   98  A    between atoms: _244  and  _245
REMARK   99  A    between atoms: _248  and  _250
REMARK  100  A    between atoms: _250  and  _251
REMARK  101  A    between atoms: _250  and  _253
REMARK  102  A    between atoms: _253  and  _254
REMARK  103  A    between atoms: _264  and  _266
REMARK  104  A    between atoms: _266  and  _267
REMARK  105  A    between atoms: _266  and  _269
REMARK  106  A    between atoms: _269  and  _270
REMARK  107  A    between atoms: _273  and  _275
REMARK  108  A    between atoms: _275  and  _276
REMARK  109  A    between atoms: _275  and  _278
REMARK  110  A    between atoms: _278  and  _279
REMARK  111  A    between atoms: _279  and  _280
REMARK  112  A    between atoms: _283  and  _285
REMARK  113  A    between atoms: _285  and  _286
REMARK  114  A    between atoms: _285  and  _288
REMARK  115  A    between atoms: _288  and  _289
REMARK  116  A    between atoms: _294  and  _296
REMARK  117  A    between atoms: _296  and  _297
REMARK  118  A    between atoms: _296  and  _299
REMARK  119  A    between atoms: _299  and  _300
REMARK  120  A    between atoms: _300  and  _301
REMARK  121  A    between atoms: _306  and  _308
REMARK  122  A    between atoms: _308  and  _309
REMARK  123  A    between atoms: _308  and  _311
REMARK  124  A    between atoms: _311  and  _312
REMARK  125  A    between atoms: _317  and  _319
REMARK  126  A    between atoms: _319  and  _320
REMARK  127  A    between atoms: _319  and  _322
REMARK  128  A    between atoms: _322  and  _323
REMARK  129  A    between atoms: _329  and  _331
REMARK  130  A    between atoms: _331  and  _332
REMARK  131  A    between atoms: _331  and  _334
REMARK  132  A    between atoms: _334  and  _335
REMARK  133  A    between atoms: _337  and  _339
REMARK  134  A    between atoms: _339  and  _340
REMARK  135  A    between atoms: _339  and  _342
REMARK  136  A    between atoms: _342  and  _343
REMARK  137  A    between atoms: _348  and  _349
REMARK  138  A    between atoms: _351  and  _353
REMARK  139  A    between atoms: _353  and  _354
REMARK  140  A    between atoms: _353  and  _356
REMARK  141  A    between atoms: _356  and  _357
REMARK  142  A    between atoms: _362  and  _364
REMARK  143  A    between atoms: _364  and  _365
REMARK  144  A    between atoms: _364  and  _367
REMARK  145  A    between atoms: _367  and  _368
REMARK  146  A    between atoms: _368  and  _369
REMARK  147  A    between atoms: _371  and  _373
REMARK  148  A    between atoms: _373  and  _374
REMARK  149  A    between atoms: _373  and  _376
REMARK  150  A    between atoms: _376  and  _377
REMARK  151  A    between atoms: _377  and  _378
REMARK  152  A    between atoms: _381  and  _383
REMARK  153  A    between atoms: _383  and  _384
REMARK  154  A    between atoms: _383  and  _386
REMARK  155  A    between atoms: _386  and  _387
REMARK  156  A    between atoms: _387  and  _388
REMARK  157  A    between atoms: _388  and  _389
REMARK  158  A    between atoms: _389  and  _390
REMARK  159  A    between atoms: _394  and  _396
REMARK  160  A    between atoms: _396  and  _397
REMARK  161  A    between atoms: _400  and  _402
REMARK  162  A    between atoms: _402  and  _403
REMARK  163  A    between atoms: _402  and  _405
REMARK  164  A    between atoms: _408  and  _410
REMARK  165  A    between atoms: _410  and  _411
REMARK  166  A    between atoms: _410  and  _413
REMARK  167  A    between atoms: _413  and  _414
REMARK  168  A    between atoms: _417  and  _419
REMARK  169  A    between atoms: _419  and  _420
REMARK  170  A    between atoms: _419  and  _422
REMARK  171  A    between atoms: _424  and  _426
REMARK  172  A    between atoms: _426  and  _427
REMARK  173  A    between atoms: _426  and  _429
REMARK  174  A    between atoms: _429  and  _430
REMARK  175  A    between atoms: _433  and  _435
REMARK  176  A    between atoms: _435  and  _436
REMARK  177  A    between atoms: _435  and  _438
REMARK  178  A    between atoms: _439  and  _440
REMARK  179  A    between atoms: _440  and  _441
REMARK  180  A    between atoms: _441  and  _442
REMARK  181  A    between atoms: _446  and  _448
REMARK  182  A    between atoms: _448  and  _449
REMARK  183  A    between atoms: _448  and  _451
REMARK  184  A    between atoms: _451  and  _452
REMARK  185  A    between atoms: _452  and  _453
REMARK  186  A    between atoms: _456  and  _458
REMARK  187  A    between atoms: _458  and  _459
REMARK  188  A    between atoms: _458  and  _461
REMARK  189  A    between atoms: _461  and  _462
REMARK  190  A    between atoms: _467  and  _469
REMARK  191  A    between atoms: _469  and  _470
REMARK  192  A    between atoms: _469  and  _472
REMARK  193  A    between atoms: _472  and  _473
REMARK  194  A    between atoms: _478  and  _480
REMARK  195  A    between atoms: _480  and  _481
REMARK  196  A    between atoms: _480  and  _483
REMARK  197  A    between atoms: _486  and  _488
REMARK  198  A    between atoms: _488  and  _489
REMARK  199  A    between atoms: _488  and  _491
REMARK  200  A    between atoms: _491  and  _492
REMARK  201  A    between atoms: _497  and  _498
REMARK  202  A    between atoms: _500  and  _502
REMARK  203  A    between atoms: _502  and  _503
REMARK  204  A    between atoms: _502  and  _505
REMARK  205  A    between atoms: _505  and  _506
REMARK  206  A    between atoms: _506  and  _507
REMARK  207  A    between atoms: _511  and  _512
REMARK  208  A    between atoms: _517  and  _519
REMARK  209  A    between atoms: _519  and  _520
REMARK  210  A    between atoms: _519  and  _522
REMARK  211  A    between atoms: _522  and  _523
REMARK  212  A    between atoms: _528  and  _529
REMARK  213  A    between atoms: _531  and  _533
REMARK  214  A    between atoms: _533  and  _534
REMARK  215  A    between atoms: _533  and  _536
REMARK  216  A    between atoms: _536  and  _537
REMARK  217  A    between atoms: _542  and  _544
REMARK  218  A    between atoms: _544  and  _545
REMARK  219  A    between atoms: _544  and  _547
REMARK  220  A    between atoms: _547  and  _548
REMARK  221  A    between atoms: _551  and  _553
REMARK  222  A    between atoms: _553  and  _554
REMARK  223  A    between atoms: _553  and  _556
REMARK  224  A    between atoms: _556  and  _557
REMARK  225  A    between atoms: _560  and  _562
REMARK  226  A    between atoms: _562  and  _563
REMARK  227  A    between atoms: _562  and  _565
REMARK  228  A    between atoms: _565  and  _566
REMARK  229  A    between atoms: _569  and  _571
REMARK  230  A    between atoms: _571  and  _572
REMARK  231  A    between atoms: _575  and  _577
REMARK  232  A    between atoms: _577  and  _578
REMARK  233  A    between atoms: _577  and  _580
REMARK  234  A    between atoms: _580  and  _581
REMARK  235  A    between atoms: _581  and  _582
REMARK  236  A    between atoms: _582  and  _583
REMARK  237  A    between atoms: _583  and  _584
REMARK                            x       y       z     vdW  Elec       q    Type
REMARK                         _______ _______ _______ _____ _____    ______ ____
ROOT
ATOM      1  CB  PHE A   1     -12.128 -14.811 -20.940  0.00  0.00    +0.051 C 
ENDROOT
BRANCH   1   2
ATOM      2  CG  PHE A   1     -11.210 -15.723 -20.155  0.00  0.00    -0.020 A 
ATOM      3  CD2 PHE A   1     -11.700 -16.857 -19.528  0.00  0.00    -0.004 A 
ATOM      4  CE2 PHE A   1     -10.847 -17.706 -18.841  0.00  0.00    -0.000 A 
ATOM      5  CZ  PHE A   1      -9.500 -17.427 -18.791  0.00  0.00    -0.000 A 
ATOM      6  CE1 PHE A   1      -9.005 -16.314 -19.432  0.00  0.00    -0.000 A 
ATOM      7  CD1 PHE A   1      -9.849 -15.477 -20.109  0.00  0.00    -0.004 A 
ENDBRANCH   1   2
BRANCH   1   8
ATOM      8  CA  PHE A   1     -12.837 -13.742 -20.113  0.00  0.00    +0.137 C 
BRANCH   8   9
ATOM      9  N   PHE A   1     -13.709 -12.995 -21.006  0.00  0.00    -0.239 NA
ATOM     10  H   PHE A   1     -13.649 -13.177 -22.028  0.00  0.00    +0.142 HD
ENDBRANCH   8   9
BRANCH   8  11
ATOM     11  C   PHE A   1     -11.850 -12.792 -19.429  0.00  0.00    +0.224 C 
ATOM     12  O   PHE A   1     -11.764 -12.734 -18.202  0.00  0.00    -0.287 OA
ENDBRANCH   8  11
ENDBRANCH   1   8
TORSDOF 4
REMARK  Name = ../refined-set-2016/3qqa/3qqa_pocket.pdb
REMARK  237 active torsions:
REMARK  status: ('A' for Active; 'I' for Inactive)
REMARK    1  A    between atoms: _1  and  _3
REMARK    2  A    between atoms: _3  and  _4
REMARK    3  A    between atoms: _3  and  _6
REMARK    4  A    between atoms: _6  and  _7
REMARK    5  A    between atoms: _13  and  _15
REMARK    6  A    between atoms: _15  and  _16
REMARK    7  A    between atoms: _15  and  _18
REMARK    8  A    between atoms: _18  and  _19
REMARK    9  A    between atoms: _25  and  _27
REMARK   10  A    between atoms: _27  and  _28
REMARK   11  A    between atoms: _27  and  _30
REMARK   12  A    between atoms: _30  and  _31
REMARK   13  A    between atoms: _34  and  _36
REMARK   14  A    between atoms: _36  and  _37
REMARK   15  A    between atoms: _36  and  _39
REMARK   16  A    between atoms: _39  and  _40
REMARK   17  A    between atoms: _43  and  _45
REMARK   18  A    between atoms: _45  and  _46
REMARK   19  A    between atoms: _45  and  _48
REMARK   20  A    between atoms: _48  and  _49
REMARK   21  A    between atoms: _52  and  _54
REMARK   22  A    between atoms: _54  and  _55
REMARK   23  A    between atoms: _54  and  _57
REMARK   24  A    between atoms: _57  and  _58
REMARK   25  A    between atoms: _61  and  _63
REMARK   26  A    between atoms: _63  and  _64
REMARK   27  A    between atoms: _63  and  _66
REMARK   28  A    between atoms: _68  and  _70
REMARK   29  A    between atoms: _70  and  _71
REMARK   30  A    between atoms: _70  and  _73
REMARK   31  A    between atoms: _73  and  _74
REMARK   32  A    between atoms: _79  and  _81
REMARK   33  A    between atoms: _81  and  _82
REMARK   34  A    between atoms: _81  and  _84
REMARK   35  A    between atoms: _84  and  _85
REMARK   36  A    between atoms: _91  and  _93
REMARK   37  A    between atoms: _93  and  _94
REMARK   38  A    between atoms: _93  and  _96
REMARK   39  A    between atoms: _96  and  _97
REMARK   40  A    between atoms: _103  and  _105
REMARK   41  A    between atoms: _105  and  _106
REMARK   42  A    between atoms: _105  and  _108
REMARK   43  A    between atoms: _108  and  _109
REMARK   44  A    between atoms: _112  and  _114
REMARK   45  A    between atoms: _114  and  _115
REMARK   46  A    between atoms: _114  and  _117
REMARK   47  A    between atoms: _117  and  _118
REMARK   48  A    between atoms: _124  and  _126
REMARK   49  A    between atoms: _126  and  _127
REMARK   50  A    between atoms: _126  and  _129
REMARK   51  A    between atoms: _129  and  _130
REMARK   52  A    between atoms: _135  and  _137
REMARK   53  A    between atoms: _137  and  _138
REMARK   54  A    between atoms: _137  and  _140
REMARK   55  A    between atoms: _140  and  _141
REMARK   56  A    between atoms: _141  and  _142
REMARK   57  A    between atoms: _147  and  _149
REMARK   58  A    between atoms: _149  and  _150
REMARK   59  A    between atoms: _149  and  _152
REMARK   60  A    between atoms: _152  and  _153
REMARK   61  A    between atoms: _153  and  _154
REMARK   62  A    between atoms: _157  and  _159
REMARK   63  A    between atoms: _159  and  _160
REMARK   64  A    between atoms: _163  and  _165
REMARK   65  A    between atoms: _165  and  _166
REMARK   66  A    between atoms: _165  and  _168
REMARK   67  A    between atoms: _171  and  _173
REMARK   68  A    between atoms: _173  and  _174
REMARK   69  A    between atoms: _177  and  _179
REMARK   70  A    between atoms: _179  and  _180
REMARK   71  A    between atoms: _179  and  _182
REMARK   72  A    between atoms: _182  and  _183
REMARK   73  A    between atoms: _189  and  _191
REMARK   74  A    between atoms: _191  and  _192
REMARK   75  A    between atoms: _194  and  _196
REMARK   76  A    between atoms: _196  and  _197
REMARK   77  A    between atoms: _196  and  _199
REMARK   78  A    between atoms: _199  and  _200
REMARK   79  A    between atoms: _200  and  _201
REMARK   80  A    between atoms: _201  and  _202
REMARK   81  A    between atoms: _202  and  _203
REMARK   82  A    between atoms: _207  and  _209
REMARK   83  A    between atoms: _209  and  _210
REMARK   84  A    between atoms: _209  and  _212
REMARK   85  A    between atoms: _212  and  _213
REMARK   86  A    between atoms: _216  and  _218
REMARK   87  A    between atoms: _218  and  _219
REMARK   88  A    between atoms: _218  and  _221
REMARK   89  A    between atoms: _221  and  _222
REMARK   90  A    between atoms: _225  and  _227
REMARK   91  A    between atoms: _227  and  _228
REMARK   92  A    between atoms: _227  and  _230
REMARK   93  A    between atoms: _230  and  _231
REMARK   94  A    between atoms: _236  and  _237
REMARK   95  A    between atoms: _239  and  _241
REMARK   96  A    between atoms: _241  and  _242
REMARK   97  A    between atoms: _241  and  _244
REMARK   98  A    between atoms: _244  and  _245
REMARK   99  A    between atoms: _248  and  _250
REMARK  100  A    between atoms: _250  and  _251
REMARK  101  A    between atoms: _250  and  _253
REMARK  102  A    between atoms: _253  and  _254
REMARK  103  A    between atoms: _264  and  _266
REMARK  104  A    between atoms: _266  and  _267
REMARK  105  A    between atoms: _266  and  _269
REMARK  106  A    between atoms: _269  and  _270
REMARK  107  A    between atoms: _273  and  _275
REMARK  108  A    between atoms: _275  and  _276
REMARK  109  A    between atoms: _275  and  _278
REMARK  110  A    between atoms: _278  and  _279
REMARK  111  A    between atoms: _279  and  _280
REMARK  112  A    between atoms: _283  and  _285
REMARK  113  A    between atoms: _285  and  _286
REMARK  114  A    between atoms: _285  and  _288
REMARK  115  A    between atoms: _288  and  _289
REMARK  116  A    between atoms: _294  and  _296
REMARK  117  A    between atoms: _296  and  _297
REMARK  118  A    between atoms: _296  and  _299
REMARK  119  A    between atoms: _299  and  _300
REMARK  120  A    between atoms: _300  and  _301
REMARK  121  A    between atoms: _306  and  _308
REMARK  122  A    between atoms: _308  and  _309
REMARK  123  A    between atoms: _308  and  _311
REMARK  124  A    between atoms: _311  and  _312
REMARK  125  A    between atoms: _317  and  _319
REMARK  126  A    between atoms: _319  and  _320
REMARK  127  A    between atoms: _319  and  _322
REMARK  128  A    between atoms: _322  and  _323
REMARK  129  A    between atoms: _329  and  _331
REMARK  130  A    between atoms: _331  and  _332
REMARK  131  A    between atoms: _331  and  _334
REMARK  132  A    between atoms: _334  and  _335
REMARK  133  A    between atoms: _337  and  _339
REMARK  134  A    between atoms: _339  and  _340
REMARK  135  A    between atoms: _339  and  _342
REMARK  136  A    between atoms: _342  and  _343
REMARK  137  A    between atoms: _348  and  _349
REMARK  138  A    between atoms: _351  and  _353
REMARK  139  A    between atoms: _353  and  _354
REMARK  140  A    between atoms: _353  and  _356
REMARK  141  A    between atoms: _356  and  _357
REMARK  142  A    between atoms: _362  and  _364
REMARK  143  A    between atoms: _364  and  _365
REMARK  144  A    between atoms: _364  and  _367
REMARK  145  A    between atoms: _367  and  _368
REMARK  146  A    between atoms: _368  and  _369
REMARK  147  A    between atoms: _371  and  _373
REMARK  148  A    between atoms: _373  and  _374
REMARK  149  A    between atoms: _373  and  _376
REMARK  150  A    between atoms: _376  and  _377
REMARK  151  A    between atoms: _377  and  _378
REMARK  152  A    between atoms: _381  and  _383
REMARK  153  A    between atoms: _383  and  _384
REMARK  154  A    between atoms: _383  and  _386
REMARK  155  A    between atoms: _386  and  _387
REMARK  156  A    between atoms: _387  and  _388
REMARK  157  A    between atoms: _388  and  _389
REMARK  158  A    between atoms: _389  and  _390
REMARK  159  A    between atoms: _394  and  _396
REMARK  160  A    between atoms: _396  and  _397
REMARK  161  A    between atoms: _400  and  _402
REMARK  162  A    between atoms: _402  and  _403
REMARK  163  A    between atoms: _402  and  _405
REMARK  164  A    between atoms: _408  and  _410
REMARK  165  A    between atoms: _410  and  _411
REMARK  166  A    between atoms: _410  and  _413
REMARK  167  A    between atoms: _413  and  _414
REMARK  168  A    between atoms: _417  and  _419
REMARK  169  A    between atoms: _419  and  _420
REMARK  170  A    between atoms: _419  and  _422
REMARK  171  A    between atoms: _424  and  _426
REMARK  172  A    between atoms: _426  and  _427
REMARK  173  A    between atoms: _426  and  _429
REMARK  174  A    between atoms: _429  and  _430
REMARK  175  A    between atoms: _433  and  _435
REMARK  176  A    between atoms: _435  and  _436
REMARK  177  A    between atoms: _435  and  _438
REMARK  178  A    between atoms: _439  and  _440
REMARK  179  A    between atoms: _440  and  _441
REMARK  180  A    between atoms: _441  and  _442
REMARK  181  A    between atoms: _446  and  _448
REMARK  182  A    between atoms: _448  and  _449
REMARK  183  A    between atoms: _448  and  _451
REMARK  184  A    between atoms: _451  and  _452
REMARK  185  A    between atoms: _452  and  _453
REMARK  186  A    between atoms: _456  and  _458
REMARK  187  A    between atoms: _458  and  _459
REMARK  188  A    between atoms: _458  and  _461
REMARK  189  A    between atoms: _461  and  _462
REMARK  190  A    between atoms: _467  and  _469
REMARK  191  A    between atoms: _469  and  _470
REMARK  192  A    between atoms: _469  and  _472
REMARK  193  A    between atoms: _472  and  _473
REMARK  194  A    between atoms: _478  and  _480
REMARK  195  A    between atoms: _480  and  _481
REMARK  196  A    between atoms: _480  and  _483
REMARK  197  A    between atoms: _486  and  _488
REMARK  198  A    between atoms: _488  and  _489
REMARK  199  A    between atoms: _488  and  _491
REMARK  200  A    between atoms: _491  and  _492
REMARK  201  A    between atoms: _497  and  _498
REMARK  202  A    between atoms: _500  and  _502
REMARK  203  A    between atoms: _502  and  _503
REMARK  204  A    between atoms: _502  and  _505
REMARK  205  A    between atoms: _505  and  _506
REMARK  206  A    between atoms: _506  and  _507
REMARK  207  A    between atoms: _511  and  _512
REMARK  208  A    between atoms: _517  and  _519
REMARK  209  A    between atoms: _519  and  _520
REMARK  210  A    between atoms: _519  and  _522
REMARK  211  A    between atoms: _522  and  _523
REMARK  212  A    between atoms: _528  and  _529
REMARK  213  A    between atoms: _531  and  _533
REMARK  214  A    between atoms: _533  and  _534
REMARK  215  A    between atoms: _533  and  _536
REMARK  216  A    between atoms: _536  and  _537
REMARK  217  A    between atoms: _542  and  _544
REMARK  218  A    between atoms: _544  and  _545
REMARK  219  A    between atoms: _544  and  _547
REMARK  220  A    between atoms: _547  and  _548
REMARK  221  A    between atoms: _551  and  _553
REMARK  222  A    between atoms: _553  and  _554
REMARK  223  A    between atoms: _553  and  _556
REMARK  224  A    between atoms: _556  and  _557
REMARK  225  A    between atoms: _560  and  _562
REMARK  226  A    between atoms: _562  and  _563
REMARK  227  A    between atoms: _562  and  _565
REMARK  228  A    between atoms: _565  and  _566
REMARK  229  A    between atoms: _569  and  _571
REMARK  230  A    between atoms: _571  and  _572
REMARK  231  A    between atoms: _575  and  _577
REMARK  232  A    between atoms: _577  and  _578
REMARK  233  A    between atoms: _577  and  _580
REMARK  234  A    between atoms: _580  and  _581
REMARK  235  A    between atoms: _581  and  _582
REMARK  236  A    between atoms: _582  and  _583
REMARK  237  A    between atoms: _583  and  _584
REMARK                            x       y       z     vdW  Elec       q    Type
REMARK                         _______ _______ _______ _____ _____    ______ ____
ROOT
ATOM      1  C   PHE A   2      -9.317 -10.110 -14.333  0.00  0.00    +0.241 C 
ATOM      2  O   PHE A   2      -8.406 -10.013 -13.524  0.00  0.00    -0.273 OA
ATOM      3  N   ASN A   3      -9.849  -9.047 -14.916  0.00  0.00    -0.297 N 
ATOM      4  H   ASN A   3     -10.609  -9.147 -15.619  0.00  0.00    +0.150 HD
ENDROOT
BRANCH   3   5
ATOM      5  CA  ASN A   3      -9.340  -7.733 -14.546  0.00  0.00    +0.158 C 
BRANCH   5   6
ATOM      6  C   ASN A   3     -10.267  -6.947 -13.602  0.00  0.00    +0.241 C 
ATOM      7  N   GLN A   4     -10.913  -7.673 -12.699  0.00  0.00    -0.298 N 
ATOM      8  H   GLN A   4     -10.858  -8.710 -12.763  0.00  0.00    +0.150 HD
ATOM      9  O   ASN A   3     -10.388  -5.730 -13.695  0.00  0.00    -0.273 OA
BRANCH   7  10
ATOM     10  CA  GLN A   4     -11.698  -7.081 -11.619  0.00  0.00    +0.137 C 
BRANCH  10  11
ATOM     11  C   GLN A   4     -10.953  -7.363 -10.321  0.00  0.00    +0.227 C 
ATOM     12  O   GLN A   4     -10.283  -8.391 -10.208  0.00  0.00    -0.286 OA
ENDBRANCH  10  11
BRANCH  10  13
ATOM     13  CB  GLN A   4     -13.095  -7.711 -11.547  0.00  0.00    +0.037 C 
BRANCH  13  14
ATOM     14  CG  GLN A   4     -13.928  -7.575 -12.834  0.00  0.00    +0.087 C 
BRANCH  14  15
ATOM     15  CD  GLN A   4     -13.928  -6.157 -13.394  0.00  0.00    +0.219 C 
ATOM     16  OE1 GLN A   4     -14.057  -5.177 -12.657  0.00  0.00    -0.275 OA
ATOM     17  NE2 GLN A   4     -13.777  -6.046 -14.706  0.00  0.00    -0.329 N 
ATOM     18 HE21 GLN A   4     -13.764  -5.106 -15.150  0.00  0.00    +0.145 HD
ATOM     19 HE22 GLN A   4     -13.671  -6.899 -15.291  0.00  0.00    +0.145 HD
ENDBRANCH  14  15
ENDBRANCH  13  14
ENDBRANCH  10  13
ENDBRANCH   7  10
ENDBRANCH   5   6
BRANCH   5  20
ATOM     20  CB  ASN A   3      -8.939  -6.949 -15.787  0.00  0.00    +0.114 C 
BRANCH  20  21
ATOM     21  CG  ASN A   3      -7.645  -7.447 -16.378  0.00  0.00    +0.222 C 
ATOM     22  OD1 ASN A   3      -6.573  -6.997 -15.992  0.00  0.00    -0.275 OA
ATOM     23  ND2 ASN A   3      -7.732  -8.410 -17.293  0.00  0.00    -0.329 N 
ATOM     24 HD21 ASN A   3      -8.664  -8.762 -17.591  0.00  0.00    +0.145 HD
ATOM     25 HD22 ASN A   3      -6.868  -8.811 -17.710  0.00  0.00    +0.145 HD
ENDBRANCH  20  21
ENDBRANCH   5  20
ENDBRANCH   3   5
BRANCH   1  26
ATOM     26  CA  PHE A   2      -9.913 -11.472 -14.677  0.00  0.00    +0.153 C 
BRANCH  26  29
ATOM     27  C   ILE A   1     -12.317 -11.142 -14.785  0.00  0.00    +0.238 C 
ATOM     28  O   ILE A   1     -12.376 -10.995 -13.562  0.00  0.00    -0.274 OA
ATOM     29  N   PHE A   2     -11.172 -11.380 -15.425  0.00  0.00    -0.297 N 
ATOM     30  H   PHE A   2     -11.171 -11.501 -16.458  0.00  0.00    +0.150 HD
BRANCH  27  31
ATOM     31  CA  ILE A   1     -13.590 -11.046 -15.638  0.00  0.00    +0.145 C 
BRANCH  31  32
ATOM     32  CB  ILE A   1     -14.164 -12.441 -15.904  0.00  0.00    +0.025 C 
ATOM     33  CG2 ILE A   1     -13.927 -13.358 -14.725  0.00  0.00    +0.002 C 
BRANCH  32  34
ATOM     34  CG1 ILE A   1     -15.661 -12.339 -16.236  0.00  0.00    +0.002 C 
ATOM     35  CD1 ILE A   1     -16.256 -13.634 -16.731  0.00  0.00    +0.000 C 
ENDBRANCH  32  34
ENDBRANCH  31  32
BRANCH  31  36
ATOM     36  N   ILE A   1     -13.350 -10.354 -16.888  0.00  0.00    -0.238 NA
ATOM     37  H   ILE A   1     -13.545 -10.847 -17.783  0.00  0.00    +0.142 HD
ENDBRANCH  31  36
ENDBRANCH  27  31
ENDBRANCH  26  29
BRANCH  26  38
ATOM     38  CB  PHE A   2      -8.891 -12.400 -15.364  0.00  0.00    +0.055 C 
BRANCH  38  39
ATOM     39  CG  PHE A   2      -9.179 -13.845 -15.138  0.00  0.00    -0.020 A 
ATOM     40  CD2 PHE A   2      -8.693 -14.489 -14.017  0.00  0.00    -0.004 A 
ATOM     41  CE2 PHE A   2      -8.982 -15.829 -13.787  0.00  0.00    -0.000 A 
ATOM     42  CZ  PHE A   2      -9.785 -16.521 -14.662  0.00  0.00    -0.000 A 
ATOM     43  CE1 PHE A   2     -10.293 -15.884 -15.769  0.00  0.00    -0.000 A 
ATOM     44  CD1 PHE A   2      -9.996 -14.550 -16.004  0.00  0.00    -0.004 A 
ENDBRANCH  38  39
ENDBRANCH  26  38
ENDBRANCH   1  26
TORSDOF 17
REMARK  Name = ../refined-set-2016/3qqa/3qqa_pocket.pdb
REMARK  237 active torsions:
REMARK  status: ('A' for Active; 'I' for Inactive)
REMARK    1  A    between atoms: _1  and  _3
REMARK    2  A    between atoms: _3  and  _4
REMARK    3  A    between atoms: _3  and  _6
REMARK    4  A    between atoms: _6  and  _7
REMARK    5  A    between atoms: _13  and  _15
REMARK    6  A    between atoms: _15  and  _16
REMARK    7  A    between atoms: _15  and  _18
REMARK    8  A    between atoms: _18  and  _19
REMARK    9  A    between atoms: _25  and  _27
REMARK   10  A    between atoms: _27  and  _28
REMARK   11  A    between atoms: _27  and  _30
REMARK   12  A    between atoms: _30  and  _31
REMARK   13  A    between atoms: _34  and  _36
REMARK   14  A    between atoms: _36  and  _37
REMARK   15  A    between atoms: _36  and  _39
REMARK   16  A    between atoms: _39  and  _40
REMARK   17  A    between atoms: _43  and  _45
REMARK   18  A    between atoms: _45  and  _46
REMARK   19  A    between atoms: _45  and  _48
REMARK   20  A    between atoms: _48  and  _49
REMARK   21  A    between atoms: _52  and  _54
REMARK   22  A    between atoms: _54  and  _55
REMARK   23  A    between atoms: _54  and  _57
REMARK   24  A    between atoms: _57  and  _58
REMARK   25  A    between atoms: _61  and  _63
REMARK   26  A    between atoms: _63  and  _64
REMARK   27  A    between atoms: _63  and  _66
REMARK   28  A    between atoms: _68  and  _70
REMARK   29  A    between atoms: _70  and  _71
REMARK   30  A    between atoms: _70  and  _73
REMARK   31  A    between atoms: _73  and  _74
REMARK   32  A    between atoms: _79  and  _81
REMARK   33  A    between atoms: _81  and  _82
REMARK   34  A    between atoms: _81  and  _84
REMARK   35  A    between atoms: _84  and  _85
REMARK   36  A    between atoms: _91  and  _93
REMARK   37  A    between atoms: _93  and  _94
REMARK   38  A    between atoms: _93  and  _96
REMARK   39  A    between atoms: _96  and  _97
REMARK   40  A    between atoms: _103  and  _105
REMARK   41  A    between atoms: _105  and  _106
REMARK   42  A    between atoms: _105  and  _108
REMARK   43  A    between atoms: _108  and  _109
REMARK   44  A    between atoms: _112  and  _114
REMARK   45  A    between atoms: _114  and  _115
REMARK   46  A    between atoms: _114  and  _117
REMARK   47  A    between atoms: _117  and  _118
REMARK   48  A    between atoms: _124  and  _126
REMARK   49  A    between atoms: _126  and  _127
REMARK   50  A    between atoms: _126  and  _129
REMARK   51  A    between atoms: _129  and  _130
REMARK   52  A    between atoms: _135  and  _137
REMARK   53  A    between atoms: _137  and  _138
REMARK   54  A    between atoms: _137  and  _140
REMARK   55  A    between atoms: _140  and  _141
REMARK   56  A    between atoms: _141  and  _142
REMARK   57  A    between atoms: _147  and  _149
REMARK   58  A    between atoms: _149  and  _150
REMARK   59  A    between atoms: _149  and  _152
REMARK   60  A    between atoms: _152  and  _153
REMARK   61  A    between atoms: _153  and  _154
REMARK   62  A    between atoms: _157  and  _159
REMARK   63  A    between atoms: _159  and  _160
REMARK   64  A    between atoms: _163  and  _165
REMARK   65  A    between atoms: _165  and  _166
REMARK   66  A    between atoms: _165  and  _168
REMARK   67  A    between atoms: _171  and  _173
REMARK   68  A    between atoms: _173  and  _174
REMARK   69  A    between atoms: _177  and  _179
REMARK   70  A    between atoms: _179  and  _180
REMARK   71  A    between atoms: _179  and  _182
REMARK   72  A    between atoms: _182  and  _183
REMARK   73  A    between atoms: _189  and  _191
REMARK   74  A    between atoms: _191  and  _192
REMARK   75  A    between atoms: _194  and  _196
REMARK   76  A    between atoms: _196  and  _197
REMARK   77  A    between atoms: _196  and  _199
REMARK   78  A    between atoms: _199  and  _200
REMARK   79  A    between atoms: _200  and  _201
REMARK   80  A    between atoms: _201  and  _202
REMARK   81  A    between atoms: _202  and  _203
REMARK   82  A    between atoms: _207  and  _209
REMARK   83  A    between atoms: _209  and  _210
REMARK   84  A    between atoms: _209  and  _212
REMARK   85  A    between atoms: _212  and  _213
REMARK   86  A    between atoms: _216  and  _218
REMARK   87  A    between atoms: _218  and  _219
REMARK   88  A    between atoms: _218  and  _221
REMARK   89  A    between atoms: _221  and  _222
REMARK   90  A    between atoms: _225  and  _227
REMARK   91  A    between atoms: _227  and  _228
REMARK   92  A    between atoms: _227  and  _230
REMARK   93  A    between atoms: _230  and  _231
REMARK   94  A    between atoms: _236  and  _237
REMARK   95  A    between atoms: _239  and  _241
REMARK   96  A    between atoms: _241  and  _242
REMARK   97  A    between atoms: _241  and  _244
REMARK   98  A    between atoms: _244  and  _245
REMARK   99  A    between atoms: _248  and  _250
REMARK  100  A    between atoms: _250  and  _251
REMARK  101  A    between atoms: _250  and  _253
REMARK  102  A    between atoms: _253  and  _254
REMARK  103  A    between atoms: _264  and  _266
REMARK  104  A    between atoms: _266  and  _267
REMARK  105  A    between atoms: _266  and  _269
REMARK  106  A    between atoms: _269  and  _270
REMARK  107  A    between atoms: _273  and  _275
REMARK  108  A    between atoms: _275  and  _276
REMARK  109  A    between atoms: _275  and  _278
REMARK  110  A    between atoms: _278  and  _279
REMARK  111  A    between atoms: _279  and  _280
REMARK  112  A    between atoms: _283  and  _285
REMARK  113  A    between atoms: _285  and  _286
REMARK  114  A    between atoms: _285  and  _288
REMARK  115  A    between atoms: _288  and  _289
REMARK  116  A    between atoms: _294  and  _296
REMARK  117  A    between atoms: _296  and  _297
REMARK  118  A    between atoms: _296  and  _299
REMARK  119  A    between atoms: _299  and  _300
REMARK  120  A    between atoms: _300  and  _301
REMARK  121  A    between atoms: _306  and  _308
REMARK  122  A    between atoms: _308  and  _309
REMARK  123  A    between atoms: _308  and  _311
REMARK  124  A    between atoms: _311  and  _312
REMARK  125  A    between atoms: _317  and  _319
REMARK  126  A    between atoms: _319  and  _320
REMARK  127  A    between atoms: _319  and  _322
REMARK  128  A    between atoms: _322  and  _323
REMARK  129  A    between atoms: _329  and  _331
REMARK  130  A    between atoms: _331  and  _332
REMARK  131  A    between atoms: _331  and  _334
REMARK  132  A    between atoms: _334  and  _335
REMARK  133  A    between atoms: _337  and  _339
REMARK  134  A    between atoms: _339  and  _340
REMARK  135  A    between atoms: _339  and  _342
REMARK  136  A    between atoms: _342  and  _343
REMARK  137  A    between atoms: _348  and  _349
REMARK  138  A    between atoms: _351  and  _353
REMARK  139  A    between atoms: _353  and  _354
REMARK  140  A    between atoms: _353  and  _356
REMARK  141  A    between atoms: _356  and  _357
REMARK  142  A    between atoms: _362  and  _364
REMARK  143  A    between atoms: _364  and  _365
REMARK  144  A    between atoms: _364  and  _367
REMARK  145  A    between atoms: _367  and  _368
REMARK  146  A    between atoms: _368  and  _369
REMARK  147  A    between atoms: _371  and  _373
REMARK  148  A    between atoms: _373  and  _374
REMARK  149  A    between atoms: _373  and  _376
REMARK  150  A    between atoms: _376  and  _377
REMARK  151  A    between atoms: _377  and  _378
REMARK  152  A    between atoms: _381  and  _383
REMARK  153  A    between atoms: _383  and  _384
REMARK  154  A    between atoms: _383  and  _386
REMARK  155  A    between atoms: _386  and  _387
REMARK  156  A    between atoms: _387  and  _388
REMARK  157  A    between atoms: _388  and  _389
REMARK  158  A    between atoms: _389  and  _390
REMARK  159  A    between atoms: _394  and  _396
REMARK  160  A    between atoms: _396  and  _397
REMARK  161  A    between atoms: _400  and  _402
REMARK  162  A    between atoms: _402  and  _403
REMARK  163  A    between atoms: _402  and  _405
REMARK  164  A    between atoms: _408  and  _410
REMARK  165  A    between atoms: _410  and  _411
REMARK  166  A    between atoms: _410  and  _413
REMARK  167  A    between atoms: _413  and  _414
REMARK  168  A    between atoms: _417  and  _419
REMARK  169  A    between atoms: _419  and  _420
REMARK  170  A    between atoms: _419  and  _422
REMARK  171  A    between atoms: _424  and  _426
REMARK  172  A    between atoms: _426  and  _427
REMARK  173  A    between atoms: _426  and  _429
REMARK  174  A    between atoms: _429  and  _430
REMARK  175  A    between atoms: _433  and  _435
REMARK  176  A    between atoms: _435  and  _436
REMARK  177  A    between atoms: _435  and  _438
REMARK  178  A    between atoms: _439  and  _440
REMARK  179  A    between atoms: _440  and  _441
REMARK  180  A    between atoms: _441  and  _442
REMARK  181  A    between atoms: _446  and  _448
REMARK  182  A    between atoms: _448  and  _449
REMARK  183  A    between atoms: _448  and  _451
REMARK  184  A    between atoms: _451  and  _452
REMARK  185  A    between atoms: _452  and  _453
REMARK  186  A    between atoms: _456  and  _458
REMARK  187  A    between atoms: _458  and  _459
REMARK  188  A    between atoms: _458  and  _461
REMARK  189  A    between atoms: _461  and  _462
REMARK  190  A    between atoms: _467  and  _469
REMARK  191  A    between atoms: _469  and  _470
REMARK  192  A    between atoms: _469  and  _472
REMARK  193  A    between atoms: _472  and  _473
REMARK  194  A    between atoms: _478  and  _480
REMARK  195  A    between atoms: _480  and  _481
REMARK  196  A    between atoms: _480  and  _483
REMARK  197  A    between atoms: _486  and  _488
REMARK  198  A    between atoms: _488  and  _489
REMARK  199  A    between atoms: _488  and  _491
REMARK  200  A    between atoms: _491  and  _492
REMARK  201  A    between atoms: _497  and  _498
REMARK  202  A    between atoms: _500  and  _502
REMARK  203  A    between atoms: _502  and  _503
REMARK  204  A    between atoms: _502  and  _505
REMARK  205  A    between atoms: _505  and  _506
REMARK  206  A    between atoms: _506  and  _507
REMARK  207  A    between atoms: _511  and  _512
REMARK  208  A    between atoms: _517  and  _519
REMARK  209  A    between atoms: _519  and  _520
REMARK  210  A    between atoms: _519  and  _522
REMARK  211  A    between atoms: _522  and  _523
REMARK  212  A    between atoms: _528  and  _529
REMARK  213  A    between atoms: _531  and  _533
REMARK  214  A    between atoms: _533  and  _534
REMARK  215  A    between atoms: _533  and  _536
REMARK  216  A    between atoms: _536  and  _537
REMARK  217  A    between atoms: _542  and  _544
REMARK  218  A    between atoms: _544  and  _545
REMARK  219  A    between atoms: _544  and  _547
REMARK  220  A    between atoms: _547  and  _548
REMARK  221  A    between atoms: _551  and  _553
REMARK  222  A    between atoms: _553  and  _554
REMARK  223  A    between atoms: _553  and  _556
REMARK  224  A    between atoms: _556  and  _557
REMARK  225  A    between atoms: _560  and  _562
REMARK  226  A    between atoms: _562  and  _563
REMARK  227  A    between atoms: _562  and  _565
REMARK  228  A    between atoms: _565  and  _566
REMARK  229  A    between atoms: _569  and  _571
REMARK  230  A    between atoms: _571  and  _572
REMARK  231  A    between atoms: _575  and  _577
REMARK  232  A    between atoms: _577  and  _578
REMARK  233  A    between atoms: _577  and  _580
REMARK  234  A    between atoms: _580  and  _581
REMARK  235  A    between atoms: _581  and  _582
REMARK  236  A    between atoms: _582  and  _583
REMARK  237  A    between atoms: _583  and  _584
REMARK                            x       y       z     vdW  Elec       q    Type
REMARK                         _______ _______ _______ _____ _____    ______ ____
ROOT
ATOM      1  C   GLY A   6      -5.786 -15.602  -5.151  0.00  0.00    +0.243 C 
ATOM      2  N   LYS A   7      -5.731 -14.567  -4.313  0.00  0.00    -0.297 N 
ATOM      3  H   LYS A   7      -6.351 -13.749  -4.482  0.00  0.00    +0.150 HD
ATOM      4  O   GLY A   6      -5.160 -16.644  -4.981  0.00  0.00    -0.273 OA
ENDROOT
BRANCH   2   5
ATOM      5  CA  LYS A   7      -4.826 -14.543  -3.161  0.00  0.00    +0.149 C 
BRANCH   5   6
ATOM      6  C   LYS A   7      -5.214 -15.577  -2.124  0.00  0.00    +0.241 C 
ATOM      7  O   LYS A   7      -4.353 -16.220  -1.517  0.00  0.00    -0.273 OA
ATOM      8  N   ILE A   8      -6.520 -15.725  -1.919  0.00  0.00    -0.297 N 
ATOM      9  H   ILE A   8      -7.185 -15.120  -2.442  0.00  0.00    +0.150 HD
BRANCH   8  10
ATOM     10  CA  ILE A   8      -7.044 -16.707  -0.986  0.00  0.00    +0.149 C 
BRANCH  10  11
ATOM     11  C   ILE A   8      -6.626 -18.098  -1.424  0.00  0.00    +0.241 C 
ATOM     12  O   ILE A   8      -6.163 -18.904  -0.623  0.00  0.00    -0.273 OA
ATOM     13  N   ILE A   9      -6.798 -18.390  -2.705  0.00  0.00    -0.297 N 
ATOM     14  H   ILE A   9      -7.198 -17.678  -3.349  0.00  0.00    +0.150 HD
BRANCH  13  15
ATOM     15  CA  ILE A   9      -6.429 -19.705  -3.216  0.00  0.00    +0.149 C 
BRANCH  15  16
ATOM     16  C   ILE A   9      -4.920 -19.976  -3.065  0.00  0.00    +0.241 C 
ATOM     17  O   ILE A   9      -4.523 -21.022  -2.541  0.00  0.00    -0.273 OA
ATOM     18  N   TYR A  10      -4.090 -19.022  -3.491  0.00  0.00    -0.298 N 
ATOM     19  H   TYR A  10      -4.491 -18.167  -3.925  0.00  0.00    +0.150 HD
BRANCH  18  20
ATOM     20  CA  TYR A  10      -2.628 -19.135  -3.369  0.00  0.00    +0.141 C 
BRANCH  20  21
ATOM     21  C   TYR A  10      -2.188 -19.391  -1.924  0.00  0.00    +0.227 C 
ATOM     22  O   TYR A  10      -1.252 -20.153  -1.684  0.00  0.00    -0.286 OA
ENDBRANCH  20  21
BRANCH  20  23
ATOM     23  CB  TYR A  10      -1.934 -17.860  -3.854  0.00  0.00    +0.054 C 
BRANCH  23  24
ATOM     24  CG  TYR A  10      -1.784 -17.717  -5.346  0.00  0.00    -0.020 A 
ATOM     25  CD2 TYR A  10      -0.613 -17.170  -5.896  0.00  0.00    -0.001 A 
ATOM     26  CE2 TYR A  10      -0.469 -17.019  -7.266  0.00  0.00    +0.036 A 
ATOM     27  CZ  TYR A  10      -1.500 -17.395  -8.099  0.00  0.00    +0.134 A 
ATOM     28  CE1 TYR A  10      -2.673 -17.929  -7.581  0.00  0.00    +0.036 A 
ATOM     29  CD1 TYR A  10      -2.807 -18.085  -6.209  0.00  0.00    -0.001 A 
BRANCH  27  30
ATOM     30  OH  TYR A  10      -1.365 -17.247  -9.455  0.00  0.00    -0.506 OA
ATOM     31  HH  TYR A  10      -0.478 -16.856  -9.656  0.00  0.00    +0.292 HD
ENDBRANCH  27  30
ENDBRANCH  23  24
ENDBRANCH  20  23
ENDBRANCH  18  20
ENDBRANCH  15  16
BRANCH  15  32
ATOM     32  CB  ILE A   9      -6.892 -19.848  -4.667  0.00  0.00    +0.027 C 
ATOM     33  CG2 ILE A   9      -6.143 -20.961  -5.381  0.00  0.00    +0.002 C 
BRANCH  32  34
ATOM     34  CG1 ILE A   9      -8.405 -20.102  -4.702  0.00  0.00    +0.002 C 
ATOM     35  CD1 ILE A   9      -9.050 -19.683  -6.005  0.00  0.00    +0.000 C 
ENDBRANCH  32  34
ENDBRANCH  15  32
ENDBRANCH  13  15
ENDBRANCH  10  11
BRANCH  10  36
ATOM     36  CB  ILE A   8      -8.594 -16.640  -0.908  0.00  0.00    +0.027 C 
ATOM     37  CG2 ILE A   8      -9.151 -17.844  -0.177  0.00  0.00    +0.002 C 
BRANCH  36  38
ATOM     38  CG1 ILE A   8      -9.041 -15.333  -0.238  0.00  0.00    +0.002 C 
ATOM     39  CD1 ILE A   8     -10.506 -15.301   0.104  0.00  0.00    +0.000 C 
ENDBRANCH  36  38
ENDBRANCH  10  36
ENDBRANCH   8  10
ENDBRANCH   5   6
BRANCH   5  40
ATOM     40  CB  LYS A   7      -4.793 -13.150  -2.538  0.00  0.00    +0.029 C 
BRANCH  40  41
ATOM     41  CG  LYS A   7      -3.982 -12.138  -3.365  0.00  0.00    +0.000 C 
BRANCH  41  42
ATOM     42  CD  LYS A   7      -4.234 -10.702  -2.920  0.00  0.00    -0.024 C 
BRANCH  42  43
ATOM     43  CE  LYS A   7      -3.094 -10.141  -2.125  0.00  0.00    -0.086 C 
BRANCH  43  44
ATOM     44  NZ  LYS A   7      -1.981  -9.717  -3.030  0.00  0.00    +0.380 N 
ATOM     45  HZ1 LYS A   7      -1.201  -9.331  -2.461  0.00  0.00    -0.089 HD
ATOM     46  HZ2 LYS A   7      -1.644 -10.539  -3.571  0.00  0.00    -0.089 HD
ATOM     47  HZ3 LYS A   7      -2.327  -8.987  -3.685  0.00  0.00    -0.089 HD
ENDBRANCH  43  44
ENDBRANCH  42  43
ENDBRANCH  41  42
ENDBRANCH  40  41
ENDBRANCH   5  40
ENDBRANCH   2   5
BRANCH   1  48
ATOM     48  CA  GLY A   6      -6.722 -15.451  -6.336  0.00  0.00    +0.176 C 
BRANCH  48  51
ATOM     49  C   PHE A   5      -8.724 -15.385  -4.972  0.00  0.00    +0.241 C 
ATOM     50  O   PHE A   5      -8.420 -16.415  -4.383  0.00  0.00    -0.273 OA
ATOM     51  N   GLY A   6      -7.977 -14.852  -5.937  0.00  0.00    -0.295 N 
ATOM     52  H   GLY A   6      -8.303 -13.987  -6.414  0.00  0.00    +0.150 HD
BRANCH  49  53
ATOM     53  CA  PHE A   5     -10.020 -14.646  -4.632  0.00  0.00    +0.153 C 
BRANCH  53  56
ATOM     54  C   ALA A   4      -9.017 -12.591  -3.835  0.00  0.00    +0.241 C 
ATOM     55  O   ALA A   4      -8.434 -13.214  -2.951  0.00  0.00    -0.273 OA
ATOM     56  N   PHE A   5      -9.834 -13.192  -4.692  0.00  0.00    -0.297 N 
ATOM     57  H   PHE A   5     -10.342 -12.632  -5.406  0.00  0.00    +0.150 HD
BRANCH  54  58
ATOM     58  CA  ALA A   4      -8.815 -11.075  -3.998  0.00  0.00    +0.149 C 
ATOM     59  CB  ALA A   4     -10.014 -10.295  -3.443  0.00  0.00    +0.031 C 
BRANCH  58  61
ATOM     60  C   VAL A   3      -7.539 -11.257  -6.045  0.00  0.00    +0.241 C 
ATOM     61  N   ALA A   4      -8.550 -10.706  -5.390  0.00  0.00    -0.297 N 
ATOM     62  H   ALA A   4      -9.158 -10.009  -5.866  0.00  0.00    +0.150 HD
ATOM     63  O   VAL A   3      -6.799 -12.081  -5.521  0.00  0.00    -0.273 OA
BRANCH  60  64
ATOM     64  CA  VAL A   3      -7.335 -10.843  -7.507  0.00  0.00    +0.149 C 
BRANCH  64  67
ATOM     65  C   ALA A   2      -9.185 -12.054  -8.505  0.00  0.00    +0.241 C 
ATOM     66  O   ALA A   2      -8.745 -13.135  -8.135  0.00  0.00    -0.273 OA
ATOM     67  N   VAL A   3      -8.570 -10.902  -8.267  0.00  0.00    -0.297 N 
ATOM     68  H   VAL A   3      -8.983 -10.021  -8.634  0.00  0.00    +0.150 HD
BRANCH  65  69
ATOM     69  CA  ALA A   2     -10.510 -11.962  -9.257  0.00  0.00    +0.149 C 
ATOM     70  CB  ALA A   2     -10.269 -11.800 -10.751  0.00  0.00    +0.031 C 
BRANCH  69  73
ATOM     71  C   GLU A   1     -11.657 -10.788  -7.460  0.00  0.00    +0.238 C 
ATOM     72  O   GLU A   1     -11.365 -11.655  -6.651  0.00  0.00    -0.274 OA
ATOM     73  N   ALA A   2     -11.289 -10.843  -8.736  0.00  0.00    -0.297 N 
ATOM     74  H   ALA A   2     -11.562 -10.071  -9.378  0.00  0.00    +0.150 HD
BRANCH  71  75
ATOM     75  CA  GLU A   1     -12.513  -9.597  -7.050  0.00  0.00    +0.145 C 
BRANCH  75  76
ATOM     76  N   GLU A   1     -12.002  -8.370  -7.647  0.00  0.00    -0.238 NA
ATOM     77  H   GLU A   1     -12.610  -7.829  -8.295  0.00  0.00    +0.142 HD
ENDBRANCH  75  76
BRANCH  75  78
ATOM     78  CB  GLU A   1     -13.966  -9.843  -7.499  0.00  0.00    +0.038 C 
BRANCH  78  79
ATOM     79  CG  GLU A   1     -15.024  -8.939  -6.856  0.00  0.00    +0.116 C 
BRANCH  79  80
ATOM     80  CD  GLU A   1     -15.167  -7.585  -7.525  0.00  0.00    +0.365 C 
ATOM     81  OE2 GLU A   1     -15.940  -6.747  -7.010  0.00  0.00    -0.246 OA
ATOM     82  OE1 GLU A   1     -14.518  -7.353  -8.559  0.00  0.00    -0.246 OA
ENDBRANCH  79  80
ENDBRANCH  78  79
ENDBRANCH  75  78
ENDBRANCH  71  75
ENDBRANCH  69  73
ENDBRANCH  65  69
ENDBRANCH  64  67
BRANCH  64  83
ATOM     83  CB  VAL A   3      -6.728  -9.450  -7.577  0.00  0.00    +0.027 C 
ATOM     84  CG2 VAL A   3      -5.278  -9.486  -7.111  0.00  0.00    +0.002 C 
ATOM     85  CG1 VAL A   3      -6.836  -8.917  -9.014  0.00  0.00    +0.002 C 
ENDBRANCH  64  83
ENDBRANCH  60  64
ENDBRANCH  58  61
ENDBRANCH  54  58
ENDBRANCH  53  56
BRANCH  53  86
ATOM     86  CB  PHE A   5     -11.137 -15.104  -5.568  0.00  0.00    +0.055 C 
BRANCH  86  87
ATOM     87  CG  PHE A   5     -12.512 -14.738  -5.092  0.00  0.00    -0.020 A 
ATOM     88  CD2 PHE A   5     -13.147 -15.492  -4.129  0.00  0.00    -0.004 A 
ATOM     89  CE2 PHE A   5     -14.418 -15.154  -3.692  0.00  0.00    -0.000 A 
ATOM     90  CZ  PHE A   5     -15.059 -14.054  -4.222  0.00  0.00    -0.000 A 
ATOM     91  CE1 PHE A   5     -14.440 -13.302  -5.190  0.00  0.00    -0.000 A 
ATOM     92  CD1 PHE A   5     -13.175 -13.645  -5.622  0.00  0.00    -0.004 A 
ENDBRANCH  86  87
ENDBRANCH  53  86
ENDBRANCH  49  53
ENDBRANCH  48  51
ENDBRANCH   1  48
TORSDOF 38
REMARK  Name = ../refined-set-2016/3qqa/3qqa_pocket.pdb
REMARK  237 active torsions:
REMARK  status: ('A' for Active; 'I' for Inactive)
REMARK    1  A    between atoms: _1  and  _3
REMARK    2  A    between atoms: _3  and  _4
REMARK    3  A    between atoms: _3  and  _6
REMARK    4  A    between atoms: _6  and  _7
REMARK    5  A    between atoms: _13  and  _15
REMARK    6  A    between atoms: _15  and  _16
REMARK    7  A    between atoms: _15  and  _18
REMARK    8  A    between atoms: _18  and  _19
REMARK    9  A    between atoms: _25  and  _27
REMARK   10  A    between atoms: _27  and  _28
REMARK   11  A    between atoms: _27  and  _30
REMARK   12  A    between atoms: _30  and  _31
REMARK   13  A    between atoms: _34  and  _36
REMARK   14  A    between atoms: _36  and  _37
REMARK   15  A    between atoms: _36  and  _39
REMARK   16  A    between atoms: _39  and  _40
REMARK   17  A    between atoms: _43  and  _45
REMARK   18  A    between atoms: _45  and  _46
REMARK   19  A    between atoms: _45  and  _48
REMARK   20  A    between atoms: _48  and  _49
REMARK   21  A    between atoms: _52  and  _54
REMARK   22  A    between atoms: _54  and  _55
REMARK   23  A    between atoms: _54  and  _57
REMARK   24  A    between atoms: _57  and  _58
REMARK   25  A    between atoms: _61  and  _63
REMARK   26  A    between atoms: _63  and  _64
REMARK   27  A    between atoms: _63  and  _66
REMARK   28  A    between atoms: _68  and  _70
REMARK   29  A    between atoms: _70  and  _71
REMARK   30  A    between atoms: _70  and  _73
REMARK   31  A    between atoms: _73  and  _74
REMARK   32  A    between atoms: _79  and  _81
REMARK   33  A    between atoms: _81  and  _82
REMARK   34  A    between atoms: _81  and  _84
REMARK   35  A    between atoms: _84  and  _85
REMARK   36  A    between atoms: _91  and  _93
REMARK   37  A    between atoms: _93  and  _94
REMARK   38  A    between atoms: _93  and  _96
REMARK   39  A    between atoms: _96  and  _97
REMARK   40  A    between atoms: _103  and  _105
REMARK   41  A    between atoms: _105  and  _106
REMARK   42  A    between atoms: _105  and  _108
REMARK   43  A    between atoms: _108  and  _109
REMARK   44  A    between atoms: _112  and  _114
REMARK   45  A    between atoms: _114  and  _115
REMARK   46  A    between atoms: _114  and  _117
REMARK   47  A    between atoms: _117  and  _118
REMARK   48  A    between atoms: _124  and  _126
REMARK   49  A    between atoms: _126  and  _127
REMARK   50  A    between atoms: _126  and  _129
REMARK   51  A    between atoms: _129  and  _130
REMARK   52  A    between atoms: _135  and  _137
REMARK   53  A    between atoms: _137  and  _138
REMARK   54  A    between atoms: _137  and  _140
REMARK   55  A    between atoms: _140  and  _141
REMARK   56  A    between atoms: _141  and  _142
REMARK   57  A    between atoms: _147  and  _149
REMARK   58  A    between atoms: _149  and  _150
REMARK   59  A    between atoms: _149  and  _152
REMARK   60  A    between atoms: _152  and  _153
REMARK   61  A    between atoms: _153  and  _154
REMARK   62  A    between atoms: _157  and  _159
REMARK   63  A    between atoms: _159  and  _160
REMARK   64  A    between atoms: _163  and  _165
REMARK   65  A    between atoms: _165  and  _166
REMARK   66  A    between atoms: _165  and  _168
REMARK   67  A    between atoms: _171  and  _173
REMARK   68  A    between atoms: _173  and  _174
REMARK   69  A    between atoms: _177  and  _179
REMARK   70  A    between atoms: _179  and  _180
REMARK   71  A    between atoms: _179  and  _182
REMARK   72  A    between atoms: _182  and  _183
REMARK   73  A    between atoms: _189  and  _191
REMARK   74  A    between atoms: _191  and  _192
REMARK   75  A    between atoms: _194  and  _196
REMARK   76  A    between atoms: _196  and  _197
REMARK   77  A    between atoms: _196  and  _199
REMARK   78  A    between atoms: _199  and  _200
REMARK   79  A    between atoms: _200  and  _201
REMARK   80  A    between atoms: _201  and  _202
REMARK   81  A    between atoms: _202  and  _203
REMARK   82  A    between atoms: _207  and  _209
REMARK   83  A    between atoms: _209  and  _210
REMARK   84  A    between atoms: _209  and  _212
REMARK   85  A    between atoms: _212  and  _213
REMARK   86  A    between atoms: _216  and  _218
REMARK   87  A    between atoms: _218  and  _219
REMARK   88  A    between atoms: _218  and  _221
REMARK   89  A    between atoms: _221  and  _222
REMARK   90  A    between atoms: _225  and  _227
REMARK   91  A    between atoms: _227  and  _228
REMARK   92  A    between atoms: _227  and  _230
REMARK   93  A    between atoms: _230  and  _231
REMARK   94  A    between atoms: _236  and  _237
REMARK   95  A    between atoms: _239  and  _241
REMARK   96  A    between atoms: _241  and  _242
REMARK   97  A    between atoms: _241  and  _244
REMARK   98  A    between atoms: _244  and  _245
REMARK   99  A    between atoms: _248  and  _250
REMARK  100  A    between atoms: _250  and  _251
REMARK  101  A    between atoms: _250  and  _253
REMARK  102  A    between atoms: _253  and  _254
REMARK  103  A    between atoms: _264  and  _266
REMARK  104  A    between atoms: _266  and  _267
REMARK  105  A    between atoms: _266  and  _269
REMARK  106  A    between atoms: _269  and  _270
REMARK  107  A    between atoms: _273  and  _275
REMARK  108  A    between atoms: _275  and  _276
REMARK  109  A    between atoms: _275  and  _278
REMARK  110  A    between atoms: _278  and  _279
REMARK  111  A    between atoms: _279  and  _280
REMARK  112  A    between atoms: _283  and  _285
REMARK  113  A    between atoms: _285  and  _286
REMARK  114  A    between atoms: _285  and  _288
REMARK  115  A    between atoms: _288  and  _289
REMARK  116  A    between atoms: _294  and  _296
REMARK  117  A    between atoms: _296  and  _297
REMARK  118  A    between atoms: _296  and  _299
REMARK  119  A    between atoms: _299  and  _300
REMARK  120  A    between atoms: _300  and  _301
REMARK  121  A    between atoms: _306  and  _308
REMARK  122  A    between atoms: _308  and  _309
REMARK  123  A    between atoms: _308  and  _311
REMARK  124  A    between atoms: _311  and  _312
REMARK  125  A    between atoms: _317  and  _319
REMARK  126  A    between atoms: _319  and  _320
REMARK  127  A    between atoms: _319  and  _322
REMARK  128  A    between atoms: _322  and  _323
REMARK  129  A    between atoms: _329  and  _331
REMARK  130  A    between atoms: _331  and  _332
REMARK  131  A    between atoms: _331  and  _334
REMARK  132  A    between atoms: _334  and  _335
REMARK  133  A    between atoms: _337  and  _339
REMARK  134  A    between atoms: _339  and  _340
REMARK  135  A    between atoms: _339  and  _342
REMARK  136  A    between atoms: _342  and  _343
REMARK  137  A    between atoms: _348  and  _349
REMARK  138  A    between atoms: _351  and  _353
REMARK  139  A    between atoms: _353  and  _354
REMARK  140  A    between atoms: _353  and  _356
REMARK  141  A    between atoms: _356  and  _357
REMARK  142  A    between atoms: _362  and  _364
REMARK  143  A    between atoms: _364  and  _365
REMARK  144  A    between atoms: _364  and  _367
REMARK  145  A    between atoms: _367  and  _368
REMARK  146  A    between atoms: _368  and  _369
REMARK  147  A    between atoms: _371  and  _373
REMARK  148  A    between atoms: _373  and  _374
REMARK  149  A    between atoms: _373  and  _376
REMARK  150  A    between atoms: _376  and  _377
REMARK  151  A    between atoms: _377  and  _378
REMARK  152  A    between atoms: _381  and  _383
REMARK  153  A    between atoms: _383  and  _384
REMARK  154  A    between atoms: _383  and  _386
REMARK  155  A    between atoms: _386  and  _387
REMARK  156  A    between atoms: _387  and  _388
REMARK  157  A    between atoms: _388  and  _389
REMARK  158  A    between atoms: _389  and  _390
REMARK  159  A    between atoms: _394  and  _396
REMARK  160  A    between atoms: _396  and  _397
REMARK  161  A    between atoms: _400  and  _402
REMARK  162  A    between atoms: _402  and  _403
REMARK  163  A    between atoms: _402  and  _405
REMARK  164  A    between atoms: _408  and  _410
REMARK  165  A    between atoms: _410  and  _411
REMARK  166  A    between atoms: _410  and  _413
REMARK  167  A    between atoms: _413  and  _414
REMARK  168  A    between atoms: _417  and  _419
REMARK  169  A    between atoms: _419  and  _420
REMARK  170  A    between atoms: _419  and  _422
REMARK  171  A    between atoms: _424  and  _426
REMARK  172  A    between atoms: _426  and  _427
REMARK  173  A    between atoms: _426  and  _429
REMARK  174  A    between atoms: _429  and  _430
REMARK  175  A    between atoms: _433  and  _435
REMARK  176  A    between atoms: _435  and  _436
REMARK  177  A    between atoms: _435  and  _438
REMARK  178  A    between atoms: _439  and  _440
REMARK  179  A    between atoms: _440  and  _441
REMARK  180  A    between atoms: _441  and  _442
REMARK  181  A    between atoms: _446  and  _448
REMARK  182  A    between atoms: _448  and  _449
REMARK  183  A    between atoms: _448  and  _451
REMARK  184  A    between atoms: _451  and  _452
REMARK  185  A    between atoms: _452  and  _453
REMARK  186  A    between atoms: _456  and  _458
REMARK  187  A    between atoms: _458  and  _459
REMARK  188  A    between atoms: _458  and  _461
REMARK  189  A    between atoms: _461  and  _462
REMARK  190  A    between atoms: _467  and  _469
REMARK  191  A    between atoms: _469  and  _470
REMARK  192  A    between atoms: _469  and  _472
REMARK  193  A    between atoms: _472  and  _473
REMARK  194  A    between atoms: _478  and  _480
REMARK  195  A    between atoms: _480  and  _481
REMARK  196  A    between atoms: _480  and  _483
REMARK  197  A    between atoms: _486  and  _488
REMARK  198  A    between atoms: _488  and  _489
REMARK  199  A    between atoms: _488  and  _491
REMARK  200  A    between atoms: _491  and  _492
REMARK  201  A    between atoms: _497  and  _498
REMARK  202  A    between atoms: _500  and  _502
REMARK  203  A    between atoms: _502  and  _503
REMARK  204  A    between atoms: _502  and  _505
REMARK  205  A    between atoms: _505  and  _506
REMARK  206  A    between atoms: _506  and  _507
REMARK  207  A    between atoms: _511  and  _512
REMARK  208  A    between atoms: _517  and  _519
REMARK  209  A    between atoms: _519  and  _520
REMARK  210  A    between atoms: _519  and  _522
REMARK  211  A    between atoms: _522  and  _523
REMARK  212  A    between atoms: _528  and  _529
REMARK  213  A    between atoms: _531  and  _533
REMARK  214  A    between atoms: _533  and  _534
REMARK  215  A    between atoms: _533  and  _536
REMARK  216  A    between atoms: _536  and  _537
REMARK  217  A    between atoms: _542  and  _544
REMARK  218  A    between atoms: _544  and  _545
REMARK  219  A    between atoms: _544  and  _547
REMARK  220  A    between atoms: _547  and  _548
REMARK  221  A    between atoms: _551  and  _553
REMARK  222  A    between atoms: _553  and  _554
REMARK  223  A    between atoms: _553  and  _556
REMARK  224  A    between atoms: _556  and  _557
REMARK  225  A    between atoms: _560  and  _562
REMARK  226  A    between atoms: _562  and  _563
REMARK  227  A    between atoms: _562  and  _565
REMARK  228  A    between atoms: _565  and  _566
REMARK  229  A    between atoms: _569  and  _571
REMARK  230  A    between atoms: _571  and  _572
REMARK  231  A    between atoms: _575  and  _577
REMARK  232  A    between atoms: _577  and  _578
REMARK  233  A    between atoms: _577  and  _580
REMARK  234  A    between atoms: _580  and  _581
REMARK  235  A    between atoms: _581  and  _582
REMARK  236  A    between atoms: _582  and  _583
REMARK  237  A    between atoms: _583  and  _584
REMARK                            x       y       z     vdW  Elec       q    Type
REMARK                         _______ _______ _______ _____ _____    ______ ____
ROOT
ATOM      1  CA  LEU A   1      -8.706 -27.169  -3.559  0.00  0.00    +0.133 C 
ENDROOT
BRANCH   1   2
ATOM      2  N   LEU A   1      -8.858 -27.743  -2.232  0.00  0.00    -0.239 NA
ATOM      3  H   LEU A   1      -8.089 -27.649  -1.538  0.00  0.00    +0.142 HD
ENDBRANCH   1   2
BRANCH   1   4
ATOM      4  C   LEU A   1      -8.698 -28.237  -4.636  0.00  0.00    +0.224 C 
ATOM      5  O   LEU A   1      -9.411 -28.128  -5.633  0.00  0.00    -0.287 OA
ENDBRANCH   1   4
BRANCH   1   6
ATOM      6  CB  LEU A   1      -7.437 -26.325  -3.646  0.00  0.00    +0.025 C 
BRANCH   6   7
ATOM      7  CG  LEU A   1      -7.201 -25.618  -4.979  0.00  0.00    +0.002 C 
ATOM      8  CD2 LEU A   1      -5.935 -24.784  -4.893  0.00  0.00    +0.000 C 
ATOM      9  CD1 LEU A   1      -8.403 -24.739  -5.343  0.00  0.00    +0.000 C 
ENDBRANCH   6   7
ENDBRANCH   1   6
TORSDOF 4
REMARK  Name = ../refined-set-2016/3qqa/3qqa_pocket.pdb
REMARK  237 active torsions:
REMARK  status: ('A' for Active; 'I' for Inactive)
REMARK    1  A    between atoms: _1  and  _3
REMARK    2  A    between atoms: _3  and  _4
REMARK    3  A    between atoms: _3  and  _6
REMARK    4  A    between atoms: _6  and  _7
REMARK    5  A    between atoms: _13  and  _15
REMARK    6  A    between atoms: _15  and  _16
REMARK    7  A    between atoms: _15  and  _18
REMARK    8  A    between atoms: _18  and  _19
REMARK    9  A    between atoms: _25  and  _27
REMARK   10  A    between atoms: _27  and  _28
REMARK   11  A    between atoms: _27  and  _30
REMARK   12  A    between atoms: _30  and  _31
REMARK   13  A    between atoms: _34  and  _36
REMARK   14  A    between atoms: _36  and  _37
REMARK   15  A    between atoms: _36  and  _39
REMARK   16  A    between atoms: _39  and  _40
REMARK   17  A    between atoms: _43  and  _45
REMARK   18  A    between atoms: _45  and  _46
REMARK   19  A    between atoms: _45  and  _48
REMARK   20  A    between atoms: _48  and  _49
REMARK   21  A    between atoms: _52  and  _54
REMARK   22  A    between atoms: _54  and  _55
REMARK   23  A    between atoms: _54  and  _57
REMARK   24  A    between atoms: _57  and  _58
REMARK   25  A    between atoms: _61  and  _63
REMARK   26  A    between atoms: _63  and  _64
REMARK   27  A    between atoms: _63  and  _66
REMARK   28  A    between atoms: _68  and  _70
REMARK   29  A    between atoms: _70  and  _71
REMARK   30  A    between atoms: _70  and  _73
REMARK   31  A    between atoms: _73  and  _74
REMARK   32  A    between atoms: _79  and  _81
REMARK   33  A    between atoms: _81  and  _82
REMARK   34  A    between atoms: _81  and  _84
REMARK   35  A    between atoms: _84  and  _85
REMARK   36  A    between atoms: _91  and  _93
REMARK   37  A    between atoms: _93  and  _94
REMARK   38  A    between atoms: _93  and  _96
REMARK   39  A    between atoms: _96  and  _97
REMARK   40  A    between atoms: _103  and  _105
REMARK   41  A    between atoms: _105  and  _106
REMARK   42  A    between atoms: _105  and  _108
REMARK   43  A    between atoms: _108  and  _109
REMARK   44  A    between atoms: _112  and  _114
REMARK   45  A    between atoms: _114  and  _115
REMARK   46  A    between atoms: _114  and  _117
REMARK   47  A    between atoms: _117  and  _118
REMARK   48  A    between atoms: _124  and  _126
REMARK   49  A    between atoms: _126  and  _127
REMARK   50  A    between atoms: _126  and  _129
REMARK   51  A    between atoms: _129  and  _130
REMARK   52  A    between atoms: _135  and  _137
REMARK   53  A    between atoms: _137  and  _138
REMARK   54  A    between atoms: _137  and  _140
REMARK   55  A    between atoms: _140  and  _141
REMARK   56  A    between atoms: _141  and  _142
REMARK   57  A    between atoms: _147  and  _149
REMARK   58  A    between atoms: _149  and  _150
REMARK   59  A    between atoms: _149  and  _152
REMARK   60  A    between atoms: _152  and  _153
REMARK   61  A    between atoms: _153  and  _154
REMARK   62  A    between atoms: _157  and  _159
REMARK   63  A    between atoms: _159  and  _160
REMARK   64  A    between atoms: _163  and  _165
REMARK   65  A    between atoms: _165  and  _166
REMARK   66  A    between atoms: _165  and  _168
REMARK   67  A    between atoms: _171  and  _173
REMARK   68  A    between atoms: _173  and  _174
REMARK   69  A    between atoms: _177  and  _179
REMARK   70  A    between atoms: _179  and  _180
REMARK   71  A    between atoms: _179  and  _182
REMARK   72  A    between atoms: _182  and  _183
REMARK   73  A    between atoms: _189  and  _191
REMARK   74  A    between atoms: _191  and  _192
REMARK   75  A    between atoms: _194  and  _196
REMARK   76  A    between atoms: _196  and  _197
REMARK   77  A    between atoms: _196  and  _199
REMARK   78  A    between atoms: _199  and  _200
REMARK   79  A    between atoms: _200  and  _201
REMARK   80  A    between atoms: _201  and  _202
REMARK   81  A    between atoms: _202  and  _203
REMARK   82  A    between atoms: _207  and  _209
REMARK   83  A    between atoms: _209  and  _210
REMARK   84  A    between atoms: _209  and  _212
REMARK   85  A    between atoms: _212  and  _213
REMARK   86  A    between atoms: _216  and  _218
REMARK   87  A    between atoms: _218  and  _219
REMARK   88  A    between atoms: _218  and  _221
REMARK   89  A    between atoms: _221  and  _222
REMARK   90  A    between atoms: _225  and  _227
REMARK   91  A    between atoms: _227  and  _228
REMARK   92  A    between atoms: _227  and  _230
REMARK   93  A    between atoms: _230  and  _231
REMARK   94  A    between atoms: _236  and  _237
REMARK   95  A    between atoms: _239  and  _241
REMARK   96  A    between atoms: _241  and  _242
REMARK   97  A    between atoms: _241  and  _244
REMARK   98  A    between atoms: _244  and  _245
REMARK   99  A    between atoms: _248  and  _250
REMARK  100  A    between atoms: _250  and  _251
REMARK  101  A    between atoms: _250  and  _253
REMARK  102  A    between atoms: _253  and  _254
REMARK  103  A    between atoms: _264  and  _266
REMARK  104  A    between atoms: _266  and  _267
REMARK  105  A    between atoms: _266  and  _269
REMARK  106  A    between atoms: _269  and  _270
REMARK  107  A    between atoms: _273  and  _275
REMARK  108  A    between atoms: _275  and  _276
REMARK  109  A    between atoms: _275  and  _278
REMARK  110  A    between atoms: _278  and  _279
REMARK  111  A    between atoms: _279  and  _280
REMARK  112  A    between atoms: _283  and  _285
REMARK  113  A    between atoms: _285  and  _286
REMARK  114  A    between atoms: _285  and  _288
REMARK  115  A    between atoms: _288  and  _289
REMARK  116  A    between atoms: _294  and  _296
REMARK  117  A    between atoms: _296  and  _297
REMARK  118  A    between atoms: _296  and  _299
REMARK  119  A    between atoms: _299  and  _300
REMARK  120  A    between atoms: _300  and  _301
REMARK  121  A    between atoms: _306  and  _308
REMARK  122  A    between atoms: _308  and  _309
REMARK  123  A    between atoms: _308  and  _311
REMARK  124  A    between atoms: _311  and  _312
REMARK  125  A    between atoms: _317  and  _319
REMARK  126  A    between atoms: _319  and  _320
REMARK  127  A    between atoms: _319  and  _322
REMARK  128  A    between atoms: _322  and  _323
REMARK  129  A    between atoms: _329  and  _331
REMARK  130  A    between atoms: _331  and  _332
REMARK  131  A    between atoms: _331  and  _334
REMARK  132  A    between atoms: _334  and  _335
REMARK  133  A    between atoms: _337  and  _339
REMARK  134  A    between atoms: _339  and  _340
REMARK  135  A    between atoms: _339  and  _342
REMARK  136  A    between atoms: _342  and  _343
REMARK  137  A    between atoms: _348  and  _349
REMARK  138  A    between atoms: _351  and  _353
REMARK  139  A    between atoms: _353  and  _354
REMARK  140  A    between atoms: _353  and  _356
REMARK  141  A    between atoms: _356  and  _357
REMARK  142  A    between atoms: _362  and  _364
REMARK  143  A    between atoms: _364  and  _365
REMARK  144  A    between atoms: _364  and  _367
REMARK  145  A    between atoms: _367  and  _368
REMARK  146  A    between atoms: _368  and  _369
REMARK  147  A    between atoms: _371  and  _373
REMARK  148  A    between atoms: _373  and  _374
REMARK  149  A    between atoms: _373  and  _376
REMARK  150  A    between atoms: _376  and  _377
REMARK  151  A    between atoms: _377  and  _378
REMARK  152  A    between atoms: _381  and  _383
REMARK  153  A    between atoms: _383  and  _384
REMARK  154  A    between atoms: _383  and  _386
REMARK  155  A    between atoms: _386  and  _387
REMARK  156  A    between atoms: _387  and  _388
REMARK  157  A    between atoms: _388  and  _389
REMARK  158  A    between atoms: _389  and  _390
REMARK  159  A    between atoms: _394  and  _396
REMARK  160  A    between atoms: _396  and  _397
REMARK  161  A    between atoms: _400  and  _402
REMARK  162  A    between atoms: _402  and  _403
REMARK  163  A    between atoms: _402  and  _405
REMARK  164  A    between atoms: _408  and  _410
REMARK  165  A    between atoms: _410  and  _411
REMARK  166  A    between atoms: _410  and  _413
REMARK  167  A    between atoms: _413  and  _414
REMARK  168  A    between atoms: _417  and  _419
REMARK  169  A    between atoms: _419  and  _420
REMARK  170  A    between atoms: _419  and  _422
REMARK  171  A    between atoms: _424  and  _426
REMARK  172  A    between atoms: _426  and  _427
REMARK  173  A    between atoms: _426  and  _429
REMARK  174  A    between atoms: _429  and  _430
REMARK  175  A    between atoms: _433  and  _435
REMARK  176  A    between atoms: _435  and  _436
REMARK  177  A    between atoms: _435  and  _438
REMARK  178  A    between atoms: _439  and  _440
REMARK  179  A    between atoms: _440  and  _441
REMARK  180  A    between atoms: _441  and  _442
REMARK  181  A    between atoms: _446  and  _448
REMARK  182  A    between atoms: _448  and  _449
REMARK  183  A    between atoms: _448  and  _451
REMARK  184  A    between atoms: _451  and  _452
REMARK  185  A    between atoms: _452  and  _453
REMARK  186  A    between atoms: _456  and  _458
REMARK  187  A    between atoms: _458  and  _459
REMARK  188  A    between atoms: _458  and  _461
REMARK  189  A    between atoms: _461  and  _462
REMARK  190  A    between atoms: _467  and  _469
REMARK  191  A    between atoms: _469  and  _470
REMARK  192  A    between atoms: _469  and  _472
REMARK  193  A    between atoms: _472  and  _473
REMARK  194  A    between atoms: _478  and  _480
REMARK  195  A    between atoms: _480  and  _481
REMARK  196  A    between atoms: _480  and  _483
REMARK  197  A    between atoms: _486  and  _488
REMARK  198  A    between atoms: _488  and  _489
REMARK  199  A    between atoms: _488  and  _491
REMARK  200  A    between atoms: _491  and  _492
REMARK  201  A    between atoms: _497  and  _498
REMARK  202  A    between atoms: _500  and  _502
REMARK  203  A    between atoms: _502  and  _503
REMARK  204  A    between atoms: _502  and  _505
REMARK  205  A    between atoms: _505  and  _506
REMARK  206  A    between atoms: _506  and  _507
REMARK  207  A    between atoms: _511  and  _512
REMARK  208  A    between atoms: _517  and  _519
REMARK  209  A    between atoms: _519  and  _520
REMARK  210  A    between atoms: _519  and  _522
REMARK  211  A    between atoms: _522  and  _523
REMARK  212  A    between atoms: _528  and  _529
REMARK  213  A    between atoms: _531  and  _533
REMARK  214  A    between atoms: _533  and  _534
REMARK  215  A    between atoms: _533  and  _536
REMARK  216  A    between atoms: _536  and  _537
REMARK  217  A    between atoms: _542  and  _544
REMARK  218  A    between atoms: _544  and  _545
REMARK  219  A    between atoms: _544  and  _547
REMARK  220  A    between atoms: _547  and  _548
REMARK  221  A    between atoms: _551  and  _553
REMARK  222  A    between atoms: _553  and  _554
REMARK  223  A    between atoms: _553  and  _556
REMARK  224  A    between atoms: _556  and  _557
REMARK  225  A    between atoms: _560  and  _562
REMARK  226  A    between atoms: _562  and  _563
REMARK  227  A    between atoms: _562  and  _565
REMARK  228  A    between atoms: _565  and  _566
REMARK  229  A    between atoms: _569  and  _571
REMARK  230  A    between atoms: _571  and  _572
REMARK  231  A    between atoms: _575  and  _577
REMARK  232  A    between atoms: _577  and  _578
REMARK  233  A    between atoms: _577  and  _580
REMARK  234  A    between atoms: _580  and  _581
REMARK  235  A    between atoms: _581  and  _582
REMARK  236  A    between atoms: _582  and  _583
REMARK  237  A    between atoms: _583  and  _584
REMARK                            x       y       z     vdW  Elec       q    Type
REMARK                         _______ _______ _______ _____ _____    ______ ____
ROOT
ATOM      1  C   TRP A   1     -12.665 -28.696  -7.258  0.00  0.00    +0.239 C 
ATOM      2  N   ILE A   2     -11.408 -28.522  -7.652  0.00  0.00    -0.297 N 
ATOM      3  H   ILE A   2     -10.658 -28.412  -6.940  0.00  0.00    +0.150 HD
ATOM      4  O   TRP A   1     -13.595 -28.813  -8.055  0.00  0.00    -0.274 OA
ENDROOT
BRANCH   1   5
ATOM      5  CA  TRP A   1     -12.918 -28.728  -5.751  0.00  0.00    +0.149 C 
BRANCH   5   6
ATOM      6  N   TRP A   1     -12.076 -29.690  -5.051  0.00  0.00    -0.238 NA
ATOM      7  H   TRP A   1     -11.473 -29.371  -4.266  0.00  0.00    +0.142 HD
ENDBRANCH   5   6
BRANCH   5   8
ATOM      8  CB  TRP A   1     -12.749 -27.328  -5.175  0.00  0.00    +0.054 C 
BRANCH   8   9
ATOM      9  CG  TRP A   1     -13.697 -26.339  -5.806  0.00  0.00    -0.002 A 
ATOM     10  CD1 TRP A   1     -15.016 -26.160  -5.500  0.00  0.00    +0.068 A 
ATOM     11  NE1 TRP A   1     -15.553 -25.164  -6.281  0.00  0.00    -0.352 N 
ATOM     12  HE1 TRP A   1     -16.538 -24.833  -6.246  0.00  0.00    +0.166 HD
ATOM     13  CE2 TRP A   1     -14.579 -24.680  -7.111  0.00  0.00    +0.056 A 
ATOM     14  CZ2 TRP A   1     -14.639 -23.681  -8.074  0.00  0.00    +0.017 A 
ATOM     15  CH2 TRP A   1     -13.491 -23.401  -8.764  0.00  0.00    +0.001 A 
ATOM     16  CZ3 TRP A   1     -12.300 -24.086  -8.510  0.00  0.00    +0.000 A 
ATOM     17  CE3 TRP A   1     -12.237 -25.084  -7.555  0.00  0.00    +0.001 A 
ATOM     18  CD2 TRP A   1     -13.394 -25.397  -6.838  0.00  0.00    +0.013 A 
ENDBRANCH   8   9
ENDBRANCH   5   8
ENDBRANCH   1   5
BRANCH   2  19
ATOM     19  CA  ILE A   2     -11.064 -28.483  -9.073  0.00  0.00    +0.148 C 
BRANCH  19  20
ATOM     20  C   ILE A   2     -11.443 -29.780  -9.783  0.00  0.00    +0.241 C 
ATOM     21  N   GLU A   3     -11.191 -30.917  -9.143  0.00  0.00    -0.298 N 
ATOM     22  H   GLU A   3     -10.742 -30.893  -8.205  0.00  0.00    +0.150 HD
ATOM     23  O   ILE A   2     -11.959 -29.758 -10.893  0.00  0.00    -0.273 OA
BRANCH  21  24
ATOM     24  CA  GLU A   3     -11.541 -32.204  -9.749  0.00  0.00    +0.137 C 
BRANCH  24  25
ATOM     25  C   GLU A   3     -13.051 -32.459  -9.855  0.00  0.00    +0.227 C 
ATOM     26  O   GLU A   3     -13.495 -33.208 -10.724  0.00  0.00    -0.286 OA
ENDBRANCH  24  25
BRANCH  24  27
ATOM     27  CB  GLU A   3     -10.864 -33.355  -9.012  0.00  0.00    +0.039 C 
BRANCH  27  28
ATOM     28  CG  GLU A   3     -10.924 -34.663  -9.766  0.00  0.00    +0.116 C 
BRANCH  28  29
ATOM     29  CD  GLU A   3      -9.870 -35.656  -9.314  0.00  0.00    +0.365 C 
ATOM     30  OE2 GLU A   3      -9.281 -35.467  -8.224  0.00  0.00    -0.246 OA
ATOM     31  OE1 GLU A   3      -9.628 -36.627 -10.059  0.00  0.00    -0.246 OA
ENDBRANCH  28  29
ENDBRANCH  27  28
ENDBRANCH  24  27
ENDBRANCH  21  24
ENDBRANCH  19  20
BRANCH  19  32
ATOM     32  CB  ILE A   2      -9.561 -28.222  -9.289  0.00  0.00    +0.027 C 
ATOM     33  CG2 ILE A   2      -9.138 -28.656 -10.679  0.00  0.00    +0.002 C 
BRANCH  32  34
ATOM     34  CG1 ILE A   2      -9.227 -26.749  -9.027  0.00  0.00    +0.002 C 
ATOM     35  CD1 ILE A   2      -7.739 -26.506  -8.753  0.00  0.00    +0.000 C 
ENDBRANCH  32  34
ENDBRANCH  19  32
ENDBRANCH   2  19
TORSDOF 13
REMARK  Name = ../refined-set-2016/3qqa/3qqa_pocket.pdb
REMARK  237 active torsions:
REMARK  status: ('A' for Active; 'I' for Inactive)
REMARK    1  A    between atoms: _1  and  _3
REMARK    2  A    between atoms: _3  and  _4
REMARK    3  A    between atoms: _3  and  _6
REMARK    4  A    between atoms: _6  and  _7
REMARK    5  A    between atoms: _13  and  _15
REMARK    6  A    between atoms: _15  and  _16
REMARK    7  A    between atoms: _15  and  _18
REMARK    8  A    between atoms: _18  and  _19
REMARK    9  A    between atoms: _25  and  _27
REMARK   10  A    between atoms: _27  and  _28
REMARK   11  A    between atoms: _27  and  _30
REMARK   12  A    between atoms: _30  and  _31
REMARK   13  A    between atoms: _34  and  _36
REMARK   14  A    between atoms: _36  and  _37
REMARK   15  A    between atoms: _36  and  _39
REMARK   16  A    between atoms: _39  and  _40
REMARK   17  A    between atoms: _43  and  _45
REMARK   18  A    between atoms: _45  and  _46
REMARK   19  A    between atoms: _45  and  _48
REMARK   20  A    between atoms: _48  and  _49
REMARK   21  A    between atoms: _52  and  _54
REMARK   22  A    between atoms: _54  and  _55
REMARK   23  A    between atoms: _54  and  _57
REMARK   24  A    between atoms: _57  and  _58
REMARK   25  A    between atoms: _61  and  _63
REMARK   26  A    between atoms: _63  and  _64
REMARK   27  A    between atoms: _63  and  _66
REMARK   28  A    between atoms: _68  and  _70
REMARK   29  A    between atoms: _70  and  _71
REMARK   30  A    between atoms: _70  and  _73
REMARK   31  A    between atoms: _73  and  _74
REMARK   32  A    between atoms: _79  and  _81
REMARK   33  A    between atoms: _81  and  _82
REMARK   34  A    between atoms: _81  and  _84
REMARK   35  A    between atoms: _84  and  _85
REMARK   36  A    between atoms: _91  and  _93
REMARK   37  A    between atoms: _93  and  _94
REMARK   38  A    between atoms: _93  and  _96
REMARK   39  A    between atoms: _96  and  _97
REMARK   40  A    between atoms: _103  and  _105
REMARK   41  A    between atoms: _105  and  _106
REMARK   42  A    between atoms: _105  and  _108
REMARK   43  A    between atoms: _108  and  _109
REMARK   44  A    between atoms: _112  and  _114
REMARK   45  A    between atoms: _114  and  _115
REMARK   46  A    between atoms: _114  and  _117
REMARK   47  A    between atoms: _117  and  _118
REMARK   48  A    between atoms: _124  and  _126
REMARK   49  A    between atoms: _126  and  _127
REMARK   50  A    between atoms: _126  and  _129
REMARK   51  A    between atoms: _129  and  _130
REMARK   52  A    between atoms: _135  and  _137
REMARK   53  A    between atoms: _137  and  _138
REMARK   54  A    between atoms: _137  and  _140
REMARK   55  A    between atoms: _140  and  _141
REMARK   56  A    between atoms: _141  and  _142
REMARK   57  A    between atoms: _147  and  _149
REMARK   58  A    between atoms: _149  and  _150
REMARK   59  A    between atoms: _149  and  _152
REMARK   60  A    between atoms: _152  and  _153
REMARK   61  A    between atoms: _153  and  _154
REMARK   62  A    between atoms: _157  and  _159
REMARK   63  A    between atoms: _159  and  _160
REMARK   64  A    between atoms: _163  and  _165
REMARK   65  A    between atoms: _165  and  _166
REMARK   66  A    between atoms: _165  and  _168
REMARK   67  A    between atoms: _171  and  _173
REMARK   68  A    between atoms: _173  and  _174
REMARK   69  A    between atoms: _177  and  _179
REMARK   70  A    between atoms: _179  and  _180
REMARK   71  A    between atoms: _179  and  _182
REMARK   72  A    between atoms: _182  and  _183
REMARK   73  A    between atoms: _189  and  _191
REMARK   74  A    between atoms: _191  and  _192
REMARK   75  A    between atoms: _194  and  _196
REMARK   76  A    between atoms: _196  and  _197
REMARK   77  A    between atoms: _196  and  _199
REMARK   78  A    between atoms: _199  and  _200
REMARK   79  A    between atoms: _200  and  _201
REMARK   80  A    between atoms: _201  and  _202
REMARK   81  A    between atoms: _202  and  _203
REMARK   82  A    between atoms: _207  and  _209
REMARK   83  A    between atoms: _209  and  _210
REMARK   84  A    between atoms: _209  and  _212
REMARK   85  A    between atoms: _212  and  _213
REMARK   86  A    between atoms: _216  and  _218
REMARK   87  A    between atoms: _218  and  _219
REMARK   88  A    between atoms: _218  and  _221
REMARK   89  A    between atoms: _221  and  _222
REMARK   90  A    between atoms: _225  and  _227
REMARK   91  A    between atoms: _227  and  _228
REMARK   92  A    between atoms: _227  and  _230
REMARK   93  A    between atoms: _230  and  _231
REMARK   94  A    between atoms: _236  and  _237
REMARK   95  A    between atoms: _239  and  _241
REMARK   96  A    between atoms: _241  and  _242
REMARK   97  A    between atoms: _241  and  _244
REMARK   98  A    between atoms: _244  and  _245
REMARK   99  A    between atoms: _248  and  _250
REMARK  100  A    between atoms: _250  and  _251
REMARK  101  A    between atoms: _250  and  _253
REMARK  102  A    between atoms: _253  and  _254
REMARK  103  A    between atoms: _264  and  _266
REMARK  104  A    between atoms: _266  and  _267
REMARK  105  A    between atoms: _266  and  _269
REMARK  106  A    between atoms: _269  and  _270
REMARK  107  A    between atoms: _273  and  _275
REMARK  108  A    between atoms: _275  and  _276
REMARK  109  A    between atoms: _275  and  _278
REMARK  110  A    between atoms: _278  and  _279
REMARK  111  A    between atoms: _279  and  _280
REMARK  112  A    between atoms: _283  and  _285
REMARK  113  A    between atoms: _285  and  _286
REMARK  114  A    between atoms: _285  and  _288
REMARK  115  A    between atoms: _288  and  _289
REMARK  116  A    between atoms: _294  and  _296
REMARK  117  A    between atoms: _296  and  _297
REMARK  118  A    between atoms: _296  and  _299
REMARK  119  A    between atoms: _299  and  _300
REMARK  120  A    between atoms: _300  and  _301
REMARK  121  A    between atoms: _306  and  _308
REMARK  122  A    between atoms: _308  and  _309
REMARK  123  A    between atoms: _308  and  _311
REMARK  124  A    between atoms: _311  and  _312
REMARK  125  A    between atoms: _317  and  _319
REMARK  126  A    between atoms: _319  and  _320
REMARK  127  A    between atoms: _319  and  _322
REMARK  128  A    between atoms: _322  and  _323
REMARK  129  A    between atoms: _329  and  _331
REMARK  130  A    between atoms: _331  and  _332
REMARK  131  A    between atoms: _331  and  _334
REMARK  132  A    between atoms: _334  and  _335
REMARK  133  A    between atoms: _337  and  _339
REMARK  134  A    between atoms: _339  and  _340
REMARK  135  A    between atoms: _339  and  _342
REMARK  136  A    between atoms: _342  and  _343
REMARK  137  A    between atoms: _348  and  _349
REMARK  138  A    between atoms: _351  and  _353
REMARK  139  A    between atoms: _353  and  _354
REMARK  140  A    between atoms: _353  and  _356
REMARK  141  A    between atoms: _356  and  _357
REMARK  142  A    between atoms: _362  and  _364
REMARK  143  A    between atoms: _364  and  _365
REMARK  144  A    between atoms: _364  and  _367
REMARK  145  A    between atoms: _367  and  _368
REMARK  146  A    between atoms: _368  and  _369
REMARK  147  A    between atoms: _371  and  _373
REMARK  148  A    between atoms: _373  and  _374
REMARK  149  A    between atoms: _373  and  _376
REMARK  150  A    between atoms: _376  and  _377
REMARK  151  A    between atoms: _377  and  _378
REMARK  152  A    between atoms: _381  and  _383
REMARK  153  A    between atoms: _383  and  _384
REMARK  154  A    between atoms: _383  and  _386
REMARK  155  A    between atoms: _386  and  _387
REMARK  156  A    between atoms: _387  and  _388
REMARK  157  A    between atoms: _388  and  _389
REMARK  158  A    between atoms: _389  and  _390
REMARK  159  A    between atoms: _394  and  _396
REMARK  160  A    between atoms: _396  and  _397
REMARK  161  A    between atoms: _400  and  _402
REMARK  162  A    between atoms: _402  and  _403
REMARK  163  A    between atoms: _402  and  _405
REMARK  164  A    between atoms: _408  and  _410
REMARK  165  A    between atoms: _410  and  _411
REMARK  166  A    between atoms: _410  and  _413
REMARK  167  A    between atoms: _413  and  _414
REMARK  168  A    between atoms: _417  and  _419
REMARK  169  A    between atoms: _419  and  _420
REMARK  170  A    between atoms: _419  and  _422
REMARK  171  A    between atoms: _424  and  _426
REMARK  172  A    between atoms: _426  and  _427
REMARK  173  A    between atoms: _426  and  _429
REMARK  174  A    between atoms: _429  and  _430
REMARK  175  A    between atoms: _433  and  _435
REMARK  176  A    between atoms: _435  and  _436
REMARK  177  A    between atoms: _435  and  _438
REMARK  178  A    between atoms: _439  and  _440
REMARK  179  A    between atoms: _440  and  _441
REMARK  180  A    between atoms: _441  and  _442
REMARK  181  A    between atoms: _446  and  _448
REMARK  182  A    between atoms: _448  and  _449
REMARK  183  A    between atoms: _448  and  _451
REMARK  184  A    between atoms: _451  and  _452
REMARK  185  A    between atoms: _452  and  _453
REMARK  186  A    between atoms: _456  and  _458
REMARK  187  A    between atoms: _458  and  _459
REMARK  188  A    between atoms: _458  and  _461
REMARK  189  A    between atoms: _461  and  _462
REMARK  190  A    between atoms: _467  and  _469
REMARK  191  A    between atoms: _469  and  _470
REMARK  192  A    between atoms: _469  and  _472
REMARK  193  A    between atoms: _472  and  _473
REMARK  194  A    between atoms: _478  and  _480
REMARK  195  A    between atoms: _480  and  _481
REMARK  196  A    between atoms: _480  and  _483
REMARK  197  A    between atoms: _486  and  _488
REMARK  198  A    between atoms: _488  and  _489
REMARK  199  A    between atoms: _488  and  _491
REMARK  200  A    between atoms: _491  and  _492
REMARK  201  A    between atoms: _497  and  _498
REMARK  202  A    between atoms: _500  and  _502
REMARK  203  A    between atoms: _502  and  _503
REMARK  204  A    between atoms: _502  and  _505
REMARK  205  A    between atoms: _505  and  _506
REMARK  206  A    between atoms: _506  and  _507
REMARK  207  A    between atoms: _511  and  _512
REMARK  208  A    between atoms: _517  and  _519
REMARK  209  A    between atoms: _519  and  _520
REMARK  210  A    between atoms: _519  and  _522
REMARK  211  A    between atoms: _522  and  _523
REMARK  212  A    between atoms: _528  and  _529
REMARK  213  A    between atoms: _531  and  _533
REMARK  214  A    between atoms: _533  and  _534
REMARK  215  A    between atoms: _533  and  _536
REMARK  216  A    between atoms: _536  and  _537
REMARK  217  A    between atoms: _542  and  _544
REMARK  218  A    between atoms: _544  and  _545
REMARK  219  A    between atoms: _544  and  _547
REMARK  220  A    between atoms: _547  and  _548
REMARK  221  A    between atoms: _551  and  _553
REMARK  222  A    between atoms: _553  and  _554
REMARK  223  A    between atoms: _553  and  _556
REMARK  224  A    between atoms: _556  and  _557
REMARK  225  A    between atoms: _560  and  _562
REMARK  226  A    between atoms: _562  and  _563
REMARK  227  A    between atoms: _562  and  _565
REMARK  228  A    between atoms: _565  and  _566
REMARK  229  A    between atoms: _569  and  _571
REMARK  230  A    between atoms: _571  and  _572
REMARK  231  A    between atoms: _575  and  _577
REMARK  232  A    between atoms: _577  and  _578
REMARK  233  A    between atoms: _577  and  _580
REMARK  234  A    between atoms: _580  and  _581
REMARK  235  A    between atoms: _581  and  _582
REMARK  236  A    between atoms: _582  and  _583
REMARK  237  A    between atoms: _583  and  _584
REMARK                            x       y       z     vdW  Elec       q    Type
REMARK                         _______ _______ _______ _____ _____    ______ ____
ROOT
ATOM      1  C   ASN A   1     -15.372 -28.695 -12.435  0.00  0.00    +0.239 C 
ATOM      2  N   GLN A   2     -14.635 -29.644 -12.957  0.00  0.00    -0.298 N 
ATOM      3  H   GLN A   2     -14.490 -30.527 -12.427  0.00  0.00    +0.150 HD
ATOM      4  O   ASN A   1     -15.612 -27.637 -13.011  0.00  0.00    -0.274 OA
ENDROOT
BRANCH   1   5
ATOM      5  CA  ASN A   1     -15.963 -28.981 -11.068  0.00  0.00    +0.154 C 
BRANCH   5   6
ATOM      6  N   ASN A   1     -15.310 -30.102 -10.414  0.00  0.00    -0.238 NA
ATOM      7  H   ASN A   1     -14.273 -30.178 -10.427  0.00  0.00    +0.142 HD
ENDBRANCH   5   6
BRANCH   5   8
ATOM      8  CB  ASN A   1     -15.906 -27.731 -10.182  0.00  0.00    +0.111 C 
BRANCH   8   9
ATOM      9  CG  ASN A   1     -17.208 -26.954 -10.192  0.00  0.00    +0.221 C 
ATOM     10  ND2 ASN A   1     -17.126 -25.643  -9.978  0.00  0.00    -0.329 N 
ATOM     11 HD21 ASN A   1     -16.199 -25.199  -9.820  0.00  0.00    +0.145 HD
ATOM     12 HD22 ASN A   1     -17.989 -25.063  -9.969  0.00  0.00    +0.145 HD
ATOM     13  OD1 ASN A   1     -18.279 -27.530 -10.385  0.00  0.00    -0.275 OA
ENDBRANCH   8   9
ENDBRANCH   5   8
ENDBRANCH   1   5
BRANCH   2  14
ATOM     14  CA  GLN A   2     -14.025 -29.488 -14.243  0.00  0.00    +0.137 C 
BRANCH  14  15
ATOM     15  C   GLN A   2     -15.019 -29.023 -15.293  0.00  0.00    +0.227 C 
ATOM     16  O   GLN A   2     -14.727 -28.170 -16.059  0.00  0.00    -0.286 OA
ENDBRANCH  14  15
BRANCH  14  17
ATOM     17  CB  GLN A   2     -13.324 -30.780 -14.670  0.00  0.00    +0.037 C 
BRANCH  17  18
ATOM     18  CG  GLN A   2     -11.904 -30.879 -14.142  0.00  0.00    +0.087 C 
BRANCH  18  19
ATOM     19  CD  GLN A   2     -10.940 -31.596 -15.066  0.00  0.00    +0.219 C 
ATOM     20  NE2 GLN A   2      -9.666 -31.131 -15.084  0.00  0.00    -0.329 N 
ATOM     21 HE21 GLN A   2      -9.402 -30.315 -14.496  0.00  0.00    +0.145 HD
ATOM     22 HE22 GLN A   2      -8.953 -31.591 -15.686  0.00  0.00    +0.145 HD
ATOM     23  OE1 GLN A   2     -11.319 -32.570 -15.747  0.00  0.00    -0.275 OA
ENDBRANCH  18  19
ENDBRANCH  17  18
ENDBRANCH  14  17
ENDBRANCH   2  14
TORSDOF 9
REMARK  Name = ../refined-set-2016/3qqa/3qqa_pocket.pdb
REMARK  237 active torsions:
REMARK  status: ('A' for Active; 'I' for Inactive)
REMARK    1  A    between atoms: _1  and  _3
REMARK    2  A    between atoms: _3  and  _4
REMARK    3  A    between atoms: _3  and  _6
REMARK    4  A    between atoms: _6  and  _7
REMARK    5  A    between atoms: _13  and  _15
REMARK    6  A    between atoms: _15  and  _16
REMARK    7  A    between atoms: _15  and  _18
REMARK    8  A    between atoms: _18  and  _19
REMARK    9  A    between atoms: _25  and  _27
REMARK   10  A    between atoms: _27  and  _28
REMARK   11  A    between atoms: _27  and  _30
REMARK   12  A    between atoms: _30  and  _31
REMARK   13  A    between atoms: _34  and  _36
REMARK   14  A    between atoms: _36  and  _37
REMARK   15  A    between atoms: _36  and  _39
REMARK   16  A    between atoms: _39  and  _40
REMARK   17  A    between atoms: _43  and  _45
REMARK   18  A    between atoms: _45  and  _46
REMARK   19  A    between atoms: _45  and  _48
REMARK   20  A    between atoms: _48  and  _49
REMARK   21  A    between atoms: _52  and  _54
REMARK   22  A    between atoms: _54  and  _55
REMARK   23  A    between atoms: _54  and  _57
REMARK   24  A    between atoms: _57  and  _58
REMARK   25  A    between atoms: _61  and  _63
REMARK   26  A    between atoms: _63  and  _64
REMARK   27  A    between atoms: _63  and  _66
REMARK   28  A    between atoms: _68  and  _70
REMARK   29  A    between atoms: _70  and  _71
REMARK   30  A    between atoms: _70  and  _73
REMARK   31  A    between atoms: _73  and  _74
REMARK   32  A    between atoms: _79  and  _81
REMARK   33  A    between atoms: _81  and  _82
REMARK   34  A    between atoms: _81  and  _84
REMARK   35  A    between atoms: _84  and  _85
REMARK   36  A    between atoms: _91  and  _93
REMARK   37  A    between atoms: _93  and  _94
REMARK   38  A    between atoms: _93  and  _96
REMARK   39  A    between atoms: _96  and  _97
REMARK   40  A    between atoms: _103  and  _105
REMARK   41  A    between atoms: _105  and  _106
REMARK   42  A    between atoms: _105  and  _108
REMARK   43  A    between atoms: _108  and  _109
REMARK   44  A    between atoms: _112  and  _114
REMARK   45  A    between atoms: _114  and  _115
REMARK   46  A    between atoms: _114  and  _117
REMARK   47  A    between atoms: _117  and  _118
REMARK   48  A    between atoms: _124  and  _126
REMARK   49  A    between atoms: _126  and  _127
REMARK   50  A    between atoms: _126  and  _129
REMARK   51  A    between atoms: _129  and  _130
REMARK   52  A    between atoms: _135  and  _137
REMARK   53  A    between atoms: _137  and  _138
REMARK   54  A    between atoms: _137  and  _140
REMARK   55  A    between atoms: _140  and  _141
REMARK   56  A    between atoms: _141  and  _142
REMARK   57  A    between atoms: _147  and  _149
REMARK   58  A    between atoms: _149  and  _150
REMARK   59  A    between atoms: _149  and  _152
REMARK   60  A    between atoms: _152  and  _153
REMARK   61  A    between atoms: _153  and  _154
REMARK   62  A    between atoms: _157  and  _159
REMARK   63  A    between atoms: _159  and  _160
REMARK   64  A    between atoms: _163  and  _165
REMARK   65  A    between atoms: _165  and  _166
REMARK   66  A    between atoms: _165  and  _168
REMARK   67  A    between atoms: _171  and  _173
REMARK   68  A    between atoms: _173  and  _174
REMARK   69  A    between atoms: _177  and  _179
REMARK   70  A    between atoms: _179  and  _180
REMARK   71  A    between atoms: _179  and  _182
REMARK   72  A    between atoms: _182  and  _183
REMARK   73  A    between atoms: _189  and  _191
REMARK   74  A    between atoms: _191  and  _192
REMARK   75  A    between atoms: _194  and  _196
REMARK   76  A    between atoms: _196  and  _197
REMARK   77  A    between atoms: _196  and  _199
REMARK   78  A    between atoms: _199  and  _200
REMARK   79  A    between atoms: _200  and  _201
REMARK   80  A    between atoms: _201  and  _202
REMARK   81  A    between atoms: _202  and  _203
REMARK   82  A    between atoms: _207  and  _209
REMARK   83  A    between atoms: _209  and  _210
REMARK   84  A    between atoms: _209  and  _212
REMARK   85  A    between atoms: _212  and  _213
REMARK   86  A    between atoms: _216  and  _218
REMARK   87  A    between atoms: _218  and  _219
REMARK   88  A    between atoms: _218  and  _221
REMARK   89  A    between atoms: _221  and  _222
REMARK   90  A    between atoms: _225  and  _227
REMARK   91  A    between atoms: _227  and  _228
REMARK   92  A    between atoms: _227  and  _230
REMARK   93  A    between atoms: _230  and  _231
REMARK   94  A    between atoms: _236  and  _237
REMARK   95  A    between atoms: _239  and  _241
REMARK   96  A    between atoms: _241  and  _242
REMARK   97  A    between atoms: _241  and  _244
REMARK   98  A    between atoms: _244  and  _245
REMARK   99  A    between atoms: _248  and  _250
REMARK  100  A    between atoms: _250  and  _251
REMARK  101  A    between atoms: _250  and  _253
REMARK  102  A    between atoms: _253  and  _254
REMARK  103  A    between atoms: _264  and  _266
REMARK  104  A    between atoms: _266  and  _267
REMARK  105  A    between atoms: _266  and  _269
REMARK  106  A    between atoms: _269  and  _270
REMARK  107  A    between atoms: _273  and  _275
REMARK  108  A    between atoms: _275  and  _276
REMARK  109  A    between atoms: _275  and  _278
REMARK  110  A    between atoms: _278  and  _279
REMARK  111  A    between atoms: _279  and  _280
REMARK  112  A    between atoms: _283  and  _285
REMARK  113  A    between atoms: _285  and  _286
REMARK  114  A    between atoms: _285  and  _288
REMARK  115  A    between atoms: _288  and  _289
REMARK  116  A    between atoms: _294  and  _296
REMARK  117  A    between atoms: _296  and  _297
REMARK  118  A    between atoms: _296  and  _299
REMARK  119  A    between atoms: _299  and  _300
REMARK  120  A    between atoms: _300  and  _301
REMARK  121  A    between atoms: _306  and  _308
REMARK  122  A    between atoms: _308  and  _309
REMARK  123  A    between atoms: _308  and  _311
REMARK  124  A    between atoms: _311  and  _312
REMARK  125  A    between atoms: _317  and  _319
REMARK  126  A    between atoms: _319  and  _320
REMARK  127  A    between atoms: _319  and  _322
REMARK  128  A    between atoms: _322  and  _323
REMARK  129  A    between atoms: _329  and  _331
REMARK  130  A    between atoms: _331  and  _332
REMARK  131  A    between atoms: _331  and  _334
REMARK  132  A    between atoms: _334  and  _335
REMARK  133  A    between atoms: _337  and  _339
REMARK  134  A    between atoms: _339  and  _340
REMARK  135  A    between atoms: _339  and  _342
REMARK  136  A    between atoms: _342  and  _343
REMARK  137  A    between atoms: _348  and  _349
REMARK  138  A    between atoms: _351  and  _353
REMARK  139  A    between atoms: _353  and  _354
REMARK  140  A    between atoms: _353  and  _356
REMARK  141  A    between atoms: _356  and  _357
REMARK  142  A    between atoms: _362  and  _364
REMARK  143  A    between atoms: _364  and  _365
REMARK  144  A    between atoms: _364  and  _367
REMARK  145  A    between atoms: _367  and  _368
REMARK  146  A    between atoms: _368  and  _369
REMARK  147  A    between atoms: _371  and  _373
REMARK  148  A    between atoms: _373  and  _374
REMARK  149  A    between atoms: _373  and  _376
REMARK  150  A    between atoms: _376  and  _377
REMARK  151  A    between atoms: _377  and  _378
REMARK  152  A    between atoms: _381  and  _383
REMARK  153  A    between atoms: _383  and  _384
REMARK  154  A    between atoms: _383  and  _386
REMARK  155  A    between atoms: _386  and  _387
REMARK  156  A    between atoms: _387  and  _388
REMARK  157  A    between atoms: _388  and  _389
REMARK  158  A    between atoms: _389  and  _390
REMARK  159  A    between atoms: _394  and  _396
REMARK  160  A    between atoms: _396  and  _397
REMARK  161  A    between atoms: _400  and  _402
REMARK  162  A    between atoms: _402  and  _403
REMARK  163  A    between atoms: _402  and  _405
REMARK  164  A    between atoms: _408  and  _410
REMARK  165  A    between atoms: _410  and  _411
REMARK  166  A    between atoms: _410  and  _413
REMARK  167  A    between atoms: _413  and  _414
REMARK  168  A    between atoms: _417  and  _419
REMARK  169  A    between atoms: _419  and  _420
REMARK  170  A    between atoms: _419  and  _422
REMARK  171  A    between atoms: _424  and  _426
REMARK  172  A    between atoms: _426  and  _427
REMARK  173  A    between atoms: _426  and  _429
REMARK  174  A    between atoms: _429  and  _430
REMARK  175  A    between atoms: _433  and  _435
REMARK  176  A    between atoms: _435  and  _436
REMARK  177  A    between atoms: _435  and  _438
REMARK  178  A    between atoms: _439  and  _440
REMARK  179  A    between atoms: _440  and  _441
REMARK  180  A    between atoms: _441  and  _442
REMARK  181  A    between atoms: _446  and  _448
REMARK  182  A    between atoms: _448  and  _449
REMARK  183  A    between atoms: _448  and  _451
REMARK  184  A    between atoms: _451  and  _452
REMARK  185  A    between atoms: _452  and  _453
REMARK  186  A    between atoms: _456  and  _458
REMARK  187  A    between atoms: _458  and  _459
REMARK  188  A    between atoms: _458  and  _461
REMARK  189  A    between atoms: _461  and  _462
REMARK  190  A    between atoms: _467  and  _469
REMARK  191  A    between atoms: _469  and  _470
REMARK  192  A    between atoms: _469  and  _472
REMARK  193  A    between atoms: _472  and  _473
REMARK  194  A    between atoms: _478  and  _480
REMARK  195  A    between atoms: _480  and  _481
REMARK  196  A    between atoms: _480  and  _483
REMARK  197  A    between atoms: _486  and  _488
REMARK  198  A    between atoms: _488  and  _489
REMARK  199  A    between atoms: _488  and  _491
REMARK  200  A    between atoms: _491  and  _492
REMARK  201  A    between atoms: _497  and  _498
REMARK  202  A    between atoms: _500  and  _502
REMARK  203  A    between atoms: _502  and  _503
REMARK  204  A    between atoms: _502  and  _505
REMARK  205  A    between atoms: _505  and  _506
REMARK  206  A    between atoms: _506  and  _507
REMARK  207  A    between atoms: _511  and  _512
REMARK  208  A    between atoms: _517  and  _519
REMARK  209  A    between atoms: _519  and  _520
REMARK  210  A    between atoms: _519  and  _522
REMARK  211  A    between atoms: _522  and  _523
REMARK  212  A    between atoms: _528  and  _529
REMARK  213  A    between atoms: _531  and  _533
REMARK  214  A    between atoms: _533  and  _534
REMARK  215  A    between atoms: _533  and  _536
REMARK  216  A    between atoms: _536  and  _537
REMARK  217  A    between atoms: _542  and  _544
REMARK  218  A    between atoms: _544  and  _545
REMARK  219  A    between atoms: _544  and  _547
REMARK  220  A    between atoms: _547  and  _548
REMARK  221  A    between atoms: _551  and  _553
REMARK  222  A    between atoms: _553  and  _554
REMARK  223  A    between atoms: _553  and  _556
REMARK  224  A    between atoms: _556  and  _557
REMARK  225  A    between atoms: _560  and  _562
REMARK  226  A    between atoms: _562  and  _563
REMARK  227  A    between atoms: _562  and  _565
REMARK  228  A    between atoms: _565  and  _566
REMARK  229  A    between atoms: _569  and  _571
REMARK  230  A    between atoms: _571  and  _572
REMARK  231  A    between atoms: _575  and  _577
REMARK  232  A    between atoms: _577  and  _578
REMARK  233  A    between atoms: _577  and  _580
REMARK  234  A    between atoms: _580  and  _581
REMARK  235  A    between atoms: _581  and  _582
REMARK  236  A    between atoms: _582  and  _583
REMARK  237  A    between atoms: _583  and  _584
REMARK                            x       y       z     vdW  Elec       q    Type
REMARK                         _______ _______ _______ _____ _____    ______ ____
ROOT
ATOM      1  CA  SER A   3     -15.148 -21.656 -19.038  0.00  0.00    +0.178 C 
ENDROOT
BRANCH   1   3
ATOM      2  C   PHE A   2     -15.103 -23.589 -17.552  0.00  0.00    +0.241 C 
ATOM      3  N   SER A   3     -14.795 -22.322 -17.794  0.00  0.00    -0.295 N 
ATOM      4  H   SER A   3     -14.282 -21.784 -17.067  0.00  0.00    +0.150 HD
ATOM      5  O   PHE A   2     -15.540 -24.358 -18.403  0.00  0.00    -0.273 OA
BRANCH   2   6
ATOM      6  CA  PHE A   2     -14.856 -24.058 -16.133  0.00  0.00    +0.153 C 
BRANCH   6   9
ATOM      7  C   ASN A   1     -16.983 -24.715 -15.222  0.00  0.00    +0.239 C 
ATOM      8  O   ASN A   1     -17.272 -23.543 -15.003  0.00  0.00    -0.274 OA
ATOM      9  N   PHE A   2     -15.819 -25.076 -15.748  0.00  0.00    -0.297 N 
ATOM     10  H   PHE A   2     -15.597 -26.083 -15.884  0.00  0.00    +0.150 HD
BRANCH   7  11
ATOM     11  CA  ASN A   1     -17.968 -25.822 -14.882  0.00  0.00    +0.154 C 
BRANCH  11  12
ATOM     12  N   ASN A   1     -17.466 -27.174 -15.086  0.00  0.00    -0.238 NA
ATOM     13  H   ASN A   1     -16.892 -27.626 -14.346  0.00  0.00    +0.142 HD
ENDBRANCH  11  12
BRANCH  11  14
ATOM     14  CB  ASN A   1     -18.452 -25.638 -13.451  0.00  0.00    +0.111 C 
BRANCH  14  15
ATOM     15  CG  ASN A   1     -19.769 -26.324 -13.197  0.00  0.00    +0.221 C 
ATOM     16  ND2 ASN A   1     -20.620 -25.691 -12.402  0.00  0.00    -0.329 N 
ATOM     17 HD21 ASN A   1     -20.362 -24.771 -11.991  0.00  0.00    +0.145 HD
ATOM     18 HD22 ASN A   1     -21.546 -26.114 -12.189  0.00  0.00    +0.145 HD
ATOM     19  OD1 ASN A   1     -20.022 -27.416 -13.711  0.00  0.00    -0.275 OA
ENDBRANCH  14  15
ENDBRANCH  11  14
ENDBRANCH   7  11
ENDBRANCH   6   9
BRANCH   6  20
ATOM     20  CB  PHE A   2     -13.423 -24.554 -15.954  0.00  0.00    +0.055 C 
BRANCH  20  21
ATOM     21  CG  PHE A   2     -13.108 -24.938 -14.548  0.00  0.00    -0.020 A 
ATOM     22  CD2 PHE A   2     -13.471 -24.109 -13.498  0.00  0.00    -0.004 A 
ATOM     23  CE2 PHE A   2     -13.191 -24.459 -12.198  0.00  0.00    -0.000 A 
ATOM     24  CZ  PHE A   2     -12.546 -25.648 -11.928  0.00  0.00    -0.000 A 
ATOM     25  CE1 PHE A   2     -12.183 -26.486 -12.960  0.00  0.00    -0.000 A 
ATOM     26  CD1 PHE A   2     -12.464 -26.129 -14.266  0.00  0.00    -0.004 A 
ENDBRANCH  20  21
ENDBRANCH   6  20
ENDBRANCH   2   6
ENDBRANCH   1   3
BRANCH   1  27
ATOM     27  C   SER A   3     -14.457 -22.233 -20.268  0.00  0.00    +0.243 C 
ATOM     28  N   TYR A   4     -13.290 -22.838 -20.085  0.00  0.00    -0.297 N 
ATOM     29  H   TYR A   4     -12.901 -22.935 -19.125  0.00  0.00    +0.150 HD
ATOM     30  O   SER A   3     -14.973 -22.118 -21.378  0.00  0.00    -0.273 OA
BRANCH  28  31
ATOM     31  CA  TYR A   4     -12.550 -23.369 -21.228  0.00  0.00    +0.153 C 
BRANCH  31  32
ATOM     32  C   TYR A   4     -13.374 -24.411 -22.002  0.00  0.00    +0.241 C 
ATOM     33  N   ASN A   5     -14.295 -25.069 -21.307  0.00  0.00    -0.298 N 
ATOM     34  H   ASN A   5     -14.349 -24.913 -20.280  0.00  0.00    +0.150 HD
ATOM     35  O   TYR A   4     -13.167 -24.612 -23.194  0.00  0.00    -0.273 OA
BRANCH  33  36
ATOM     36  CA  ASN A   5     -15.234 -26.001 -21.921  0.00  0.00    +0.146 C 
BRANCH  36  37
ATOM     37  C   ASN A   5     -16.034 -25.353 -23.036  0.00  0.00    +0.227 C 
ATOM     38  O   ASN A   5     -16.312 -25.990 -24.053  0.00  0.00    -0.286 OA
ENDBRANCH  36  37
BRANCH  36  39
ATOM     39  CB  ASN A   5     -16.200 -26.559 -20.874  0.00  0.00    +0.112 C 
BRANCH  39  40
ATOM     40  CG  ASN A   5     -15.535 -27.535 -19.935  0.00  0.00    +0.222 C 
ATOM     41  ND2 ASN A   5     -15.466 -27.179 -18.663  0.00  0.00    -0.329 N 
ATOM     42 HD21 ASN A   5     -15.018 -27.811 -17.970  0.00  0.00    +0.145 HD
ATOM     43 HD22 ASN A   5     -15.860 -26.267 -18.356  0.00  0.00    +0.145 HD
ATOM     44  OD1 ASN A   5     -15.087 -28.597 -20.349  0.00  0.00    -0.275 OA
ENDBRANCH  39  40
ENDBRANCH  36  39
ENDBRANCH  33  36
ENDBRANCH  31  32
BRANCH  31  45
ATOM     45  CB  TYR A   4     -11.209 -23.957 -20.793  0.00  0.00    +0.055 C 
BRANCH  45  46
ATOM     46  CG  TYR A   4     -11.315 -25.356 -20.232  0.00  0.00    -0.020 A 
ATOM     47  CD2 TYR A   4     -11.440 -25.571 -18.867  0.00  0.00    -0.001 A 
ATOM     48  CE2 TYR A   4     -11.543 -26.853 -18.349  0.00  0.00    +0.036 A 
ATOM     49  CZ  TYR A   4     -11.521 -27.934 -19.201  0.00  0.00    +0.134 A 
ATOM     50  CE1 TYR A   4     -11.400 -27.747 -20.561  0.00  0.00    +0.036 A 
ATOM     51  CD1 TYR A   4     -11.294 -26.464 -21.068  0.00  0.00    -0.001 A 
BRANCH  49  52
ATOM     52  OH  TYR A   4     -11.619 -29.205 -18.692  0.00  0.00    -0.506 OA
ATOM     53  HH  TYR A   4     -11.587 -29.860 -19.434  0.00  0.00    +0.292 HD
ENDBRANCH  49  52
ENDBRANCH  45  46
ENDBRANCH  31  45
ENDBRANCH  28  31
ENDBRANCH   1  27
BRANCH   1  54
ATOM     54  CB  SER A   3     -14.848 -20.160 -18.932  0.00  0.00    +0.166 C 
BRANCH  54  55
ATOM     55  OG  SER A   3     -13.453 -19.955 -18.795  0.00  0.00    -0.380 OA
ATOM     56  H   SER A   3     -13.132 -20.411 -17.977  0.00  0.00    +0.211 HD
ENDBRANCH  54  55
ENDBRANCH   1  54
TORSDOF 21
REMARK  Name = ../refined-set-2016/3qqa/3qqa_pocket.pdb
REMARK  237 active torsions:
REMARK  status: ('A' for Active; 'I' for Inactive)
REMARK    1  A    between atoms: _1  and  _3
REMARK    2  A    between atoms: _3  and  _4
REMARK    3  A    between atoms: _3  and  _6
REMARK    4  A    between atoms: _6  and  _7
REMARK    5  A    between atoms: _13  and  _15
REMARK    6  A    between atoms: _15  and  _16
REMARK    7  A    between atoms: _15  and  _18
REMARK    8  A    between atoms: _18  and  _19
REMARK    9  A    between atoms: _25  and  _27
REMARK   10  A    between atoms: _27  and  _28
REMARK   11  A    between atoms: _27  and  _30
REMARK   12  A    between atoms: _30  and  _31
REMARK   13  A    between atoms: _34  and  _36
REMARK   14  A    between atoms: _36  and  _37
REMARK   15  A    between atoms: _36  and  _39
REMARK   16  A    between atoms: _39  and  _40
REMARK   17  A    between atoms: _43  and  _45
REMARK   18  A    between atoms: _45  and  _46
REMARK   19  A    between atoms: _45  and  _48
REMARK   20  A    between atoms: _48  and  _49
REMARK   21  A    between atoms: _52  and  _54
REMARK   22  A    between atoms: _54  and  _55
REMARK   23  A    between atoms: _54  and  _57
REMARK   24  A    between atoms: _57  and  _58
REMARK   25  A    between atoms: _61  and  _63
REMARK   26  A    between atoms: _63  and  _64
REMARK   27  A    between atoms: _63  and  _66
REMARK   28  A    between atoms: _68  and  _70
REMARK   29  A    between atoms: _70  and  _71
REMARK   30  A    between atoms: _70  and  _73
REMARK   31  A    between atoms: _73  and  _74
REMARK   32  A    between atoms: _79  and  _81
REMARK   33  A    between atoms: _81  and  _82
REMARK   34  A    between atoms: _81  and  _84
REMARK   35  A    between atoms: _84  and  _85
REMARK   36  A    between atoms: _91  and  _93
REMARK   37  A    between atoms: _93  and  _94
REMARK   38  A    between atoms: _93  and  _96
REMARK   39  A    between atoms: _96  and  _97
REMARK   40  A    between atoms: _103  and  _105
REMARK   41  A    between atoms: _105  and  _106
REMARK   42  A    between atoms: _105  and  _108
REMARK   43  A    between atoms: _108  and  _109
REMARK   44  A    between atoms: _112  and  _114
REMARK   45  A    between atoms: _114  and  _115
REMARK   46  A    between atoms: _114  and  _117
REMARK   47  A    between atoms: _117  and  _118
REMARK   48  A    between atoms: _124  and  _126
REMARK   49  A    between atoms: _126  and  _127
REMARK   50  A    between atoms: _126  and  _129
REMARK   51  A    between atoms: _129  and  _130
REMARK   52  A    between atoms: _135  and  _137
REMARK   53  A    between atoms: _137  and  _138
REMARK   54  A    between atoms: _137  and  _140
REMARK   55  A    between atoms: _140  and  _141
REMARK   56  A    between atoms: _141  and  _142
REMARK   57  A    between atoms: _147  and  _149
REMARK   58  A    between atoms: _149  and  _150
REMARK   59  A    between atoms: _149  and  _152
REMARK   60  A    between atoms: _152  and  _153
REMARK   61  A    between atoms: _153  and  _154
REMARK   62  A    between atoms: _157  and  _159
REMARK   63  A    between atoms: _159  and  _160
REMARK   64  A    between atoms: _163  and  _165
REMARK   65  A    between atoms: _165  and  _166
REMARK   66  A    between atoms: _165  and  _168
REMARK   67  A    between atoms: _171  and  _173
REMARK   68  A    between atoms: _173  and  _174
REMARK   69  A    between atoms: _177  and  _179
REMARK   70  A    between atoms: _179  and  _180
REMARK   71  A    between atoms: _179  and  _182
REMARK   72  A    between atoms: _182  and  _183
REMARK   73  A    between atoms: _189  and  _191
REMARK   74  A    between atoms: _191  and  _192
REMARK   75  A    between atoms: _194  and  _196
REMARK   76  A    between atoms: _196  and  _197
REMARK   77  A    between atoms: _196  and  _199
REMARK   78  A    between atoms: _199  and  _200
REMARK   79  A    between atoms: _200  and  _201
REMARK   80  A    between atoms: _201  and  _202
REMARK   81  A    between atoms: _202  and  _203
REMARK   82  A    between atoms: _207  and  _209
REMARK   83  A    between atoms: _209  and  _210
REMARK   84  A    between atoms: _209  and  _212
REMARK   85  A    between atoms: _212  and  _213
REMARK   86  A    between atoms: _216  and  _218
REMARK   87  A    between atoms: _218  and  _219
REMARK   88  A    between atoms: _218  and  _221
REMARK   89  A    between atoms: _221  and  _222
REMARK   90  A    between atoms: _225  and  _227
REMARK   91  A    between atoms: _227  and  _228
REMARK   92  A    between atoms: _227  and  _230
REMARK   93  A    between atoms: _230  and  _231
REMARK   94  A    between atoms: _236  and  _237
REMARK   95  A    between atoms: _239  and  _241
REMARK   96  A    between atoms: _241  and  _242
REMARK   97  A    between atoms: _241  and  _244
REMARK   98  A    between atoms: _244  and  _245
REMARK   99  A    between atoms: _248  and  _250
REMARK  100  A    between atoms: _250  and  _251
REMARK  101  A    between atoms: _250  and  _253
REMARK  102  A    between atoms: _253  and  _254
REMARK  103  A    between atoms: _264  and  _266
REMARK  104  A    between atoms: _266  and  _267
REMARK  105  A    between atoms: _266  and  _269
REMARK  106  A    between atoms: _269  and  _270
REMARK  107  A    between atoms: _273  and  _275
REMARK  108  A    between atoms: _275  and  _276
REMARK  109  A    between atoms: _275  and  _278
REMARK  110  A    between atoms: _278  and  _279
REMARK  111  A    between atoms: _279  and  _280
REMARK  112  A    between atoms: _283  and  _285
REMARK  113  A    between atoms: _285  and  _286
REMARK  114  A    between atoms: _285  and  _288
REMARK  115  A    between atoms: _288  and  _289
REMARK  116  A    between atoms: _294  and  _296
REMARK  117  A    between atoms: _296  and  _297
REMARK  118  A    between atoms: _296  and  _299
REMARK  119  A    between atoms: _299  and  _300
REMARK  120  A    between atoms: _300  and  _301
REMARK  121  A    between atoms: _306  and  _308
REMARK  122  A    between atoms: _308  and  _309
REMARK  123  A    between atoms: _308  and  _311
REMARK  124  A    between atoms: _311  and  _312
REMARK  125  A    between atoms: _317  and  _319
REMARK  126  A    between atoms: _319  and  _320
REMARK  127  A    between atoms: _319  and  _322
REMARK  128  A    between atoms: _322  and  _323
REMARK  129  A    between atoms: _329  and  _331
REMARK  130  A    between atoms: _331  and  _332
REMARK  131  A    between atoms: _331  and  _334
REMARK  132  A    between atoms: _334  and  _335
REMARK  133  A    between atoms: _337  and  _339
REMARK  134  A    between atoms: _339  and  _340
REMARK  135  A    between atoms: _339  and  _342
REMARK  136  A    between atoms: _342  and  _343
REMARK  137  A    between atoms: _348  and  _349
REMARK  138  A    between atoms: _351  and  _353
REMARK  139  A    between atoms: _353  and  _354
REMARK  140  A    between atoms: _353  and  _356
REMARK  141  A    between atoms: _356  and  _357
REMARK  142  A    between atoms: _362  and  _364
REMARK  143  A    between atoms: _364  and  _365
REMARK  144  A    between atoms: _364  and  _367
REMARK  145  A    between atoms: _367  and  _368
REMARK  146  A    between atoms: _368  and  _369
REMARK  147  A    between atoms: _371  and  _373
REMARK  148  A    between atoms: _373  and  _374
REMARK  149  A    between atoms: _373  and  _376
REMARK  150  A    between atoms: _376  and  _377
REMARK  151  A    between atoms: _377  and  _378
REMARK  152  A    between atoms: _381  and  _383
REMARK  153  A    between atoms: _383  and  _384
REMARK  154  A    between atoms: _383  and  _386
REMARK  155  A    between atoms: _386  and  _387
REMARK  156  A    between atoms: _387  and  _388
REMARK  157  A    between atoms: _388  and  _389
REMARK  158  A    between atoms: _389  and  _390
REMARK  159  A    between atoms: _394  and  _396
REMARK  160  A    between atoms: _396  and  _397
REMARK  161  A    between atoms: _400  and  _402
REMARK  162  A    between atoms: _402  and  _403
REMARK  163  A    between atoms: _402  and  _405
REMARK  164  A    between atoms: _408  and  _410
REMARK  165  A    between atoms: _410  and  _411
REMARK  166  A    between atoms: _410  and  _413
REMARK  167  A    between atoms: _413  and  _414
REMARK  168  A    between atoms: _417  and  _419
REMARK  169  A    between atoms: _419  and  _420
REMARK  170  A    between atoms: _419  and  _422
REMARK  171  A    between atoms: _424  and  _426
REMARK  172  A    between atoms: _426  and  _427
REMARK  173  A    between atoms: _426  and  _429
REMARK  174  A    between atoms: _429  and  _430
REMARK  175  A    between atoms: _433  and  _435
REMARK  176  A    between atoms: _435  and  _436
REMARK  177  A    between atoms: _435  and  _438
REMARK  178  A    between atoms: _439  and  _440
REMARK  179  A    between atoms: _440  and  _441
REMARK  180  A    between atoms: _441  and  _442
REMARK  181  A    between atoms: _446  and  _448
REMARK  182  A    between atoms: _448  and  _449
REMARK  183  A    between atoms: _448  and  _451
REMARK  184  A    between atoms: _451  and  _452
REMARK  185  A    between atoms: _452  and  _453
REMARK  186  A    between atoms: _456  and  _458
REMARK  187  A    between atoms: _458  and  _459
REMARK  188  A    between atoms: _458  and  _461
REMARK  189  A    between atoms: _461  and  _462
REMARK  190  A    between atoms: _467  and  _469
REMARK  191  A    between atoms: _469  and  _470
REMARK  192  A    between atoms: _469  and  _472
REMARK  193  A    between atoms: _472  and  _473
REMARK  194  A    between atoms: _478  and  _480
REMARK  195  A    between atoms: _480  and  _481
REMARK  196  A    between atoms: _480  and  _483
REMARK  197  A    between atoms: _486  and  _488
REMARK  198  A    between atoms: _488  and  _489
REMARK  199  A    between atoms: _488  and  _491
REMARK  200  A    between atoms: _491  and  _492
REMARK  201  A    between atoms: _497  and  _498
REMARK  202  A    between atoms: _500  and  _502
REMARK  203  A    between atoms: _502  and  _503
REMARK  204  A    between atoms: _502  and  _505
REMARK  205  A    between atoms: _505  and  _506
REMARK  206  A    between atoms: _506  and  _507
REMARK  207  A    between atoms: _511  and  _512
REMARK  208  A    between atoms: _517  and  _519
REMARK  209  A    between atoms: _519  and  _520
REMARK  210  A    between atoms: _519  and  _522
REMARK  211  A    between atoms: _522  and  _523
REMARK  212  A    between atoms: _528  and  _529
REMARK  213  A    between atoms: _531  and  _533
REMARK  214  A    between atoms: _533  and  _534
REMARK  215  A    between atoms: _533  and  _536
REMARK  216  A    between atoms: _536  and  _537
REMARK  217  A    between atoms: _542  and  _544
REMARK  218  A    between atoms: _544  and  _545
REMARK  219  A    between atoms: _544  and  _547
REMARK  220  A    between atoms: _547  and  _548
REMARK  221  A    between atoms: _551  and  _553
REMARK  222  A    between atoms: _553  and  _554
REMARK  223  A    between atoms: _553  and  _556
REMARK  224  A    between atoms: _556  and  _557
REMARK  225  A    between atoms: _560  and  _562
REMARK  226  A    between atoms: _562  and  _563
REMARK  227  A    between atoms: _562  and  _565
REMARK  228  A    between atoms: _565  and  _566
REMARK  229  A    between atoms: _569  and  _571
REMARK  230  A    between atoms: _571  and  _572
REMARK  231  A    between atoms: _575  and  _577
REMARK  232  A    between atoms: _577  and  _578
REMARK  233  A    between atoms: _577  and  _580
REMARK  234  A    between atoms: _580  and  _581
REMARK  235  A    between atoms: _581  and  _582
REMARK  236  A    between atoms: _582  and  _583
REMARK  237  A    between atoms: _583  and  _584
REMARK                            x       y       z     vdW  Elec       q    Type
REMARK                         _______ _______ _______ _____ _____    ______ ____
ROOT
ATOM      1  CA  MET A   1     -13.620 -26.668 -26.327  0.00  0.00    +0.134 C 
ENDROOT
BRANCH   1   2
ATOM      2  N   MET A   1     -13.831 -25.278 -25.949  0.00  0.00    -0.239 NA
ATOM      3  H   MET A   1     -13.847 -25.030 -24.939  0.00  0.00    +0.142 HD
ENDBRANCH   1   2
BRANCH   1   4
ATOM      4  C   MET A   1     -14.741 -27.154 -27.243  0.00  0.00    +0.224 C 
ATOM      5  O   MET A   1     -14.489 -27.853 -28.222  0.00  0.00    -0.287 OA
ENDBRANCH   1   4
BRANCH   1   6
ATOM      6  CB  MET A   1     -13.551 -27.531 -25.070  0.00  0.00    +0.037 C 
BRANCH   6   7
ATOM      7  CG  MET A   1     -13.020 -28.921 -25.296  0.00  0.00    +0.059 C 
BRANCH   7   8
ATOM      8  SD  MET A   1     -12.733 -29.767 -23.732  0.00  0.00    -0.139 S 
ATOM      9  CE  MET A   1     -14.404 -29.871 -23.093  0.00  0.00    +0.069 C 
ENDBRANCH   7   8
ENDBRANCH   6   7
ENDBRANCH   1   6
TORSDOF 5
REMARK  Name = ../refined-set-2016/3qqa/3qqa_pocket.pdb
REMARK  237 active torsions:
REMARK  status: ('A' for Active; 'I' for Inactive)
REMARK    1  A    between atoms: _1  and  _3
REMARK    2  A    between atoms: _3  and  _4
REMARK    3  A    between atoms: _3  and  _6
REMARK    4  A    between atoms: _6  and  _7
REMARK    5  A    between atoms: _13  and  _15
REMARK    6  A    between atoms: _15  and  _16
REMARK    7  A    between atoms: _15  and  _18
REMARK    8  A    between atoms: _18  and  _19
REMARK    9  A    between atoms: _25  and  _27
REMARK   10  A    between atoms: _27  and  _28
REMARK   11  A    between atoms: _27  and  _30
REMARK   12  A    between atoms: _30  and  _31
REMARK   13  A    between atoms: _34  and  _36
REMARK   14  A    between atoms: _36  and  _37
REMARK   15  A    between atoms: _36  and  _39
REMARK   16  A    between atoms: _39  and  _40
REMARK   17  A    between atoms: _43  and  _45
REMARK   18  A    between atoms: _45  and  _46
REMARK   19  A    between atoms: _45  and  _48
REMARK   20  A    between atoms: _48  and  _49
REMARK   21  A    between atoms: _52  and  _54
REMARK   22  A    between atoms: _54  and  _55
REMARK   23  A    between atoms: _54  and  _57
REMARK   24  A    between atoms: _57  and  _58
REMARK   25  A    between atoms: _61  and  _63
REMARK   26  A    between atoms: _63  and  _64
REMARK   27  A    between atoms: _63  and  _66
REMARK   28  A    between atoms: _68  and  _70
REMARK   29  A    between atoms: _70  and  _71
REMARK   30  A    between atoms: _70  and  _73
REMARK   31  A    between atoms: _73  and  _74
REMARK   32  A    between atoms: _79  and  _81
REMARK   33  A    between atoms: _81  and  _82
REMARK   34  A    between atoms: _81  and  _84
REMARK   35  A    between atoms: _84  and  _85
REMARK   36  A    between atoms: _91  and  _93
REMARK   37  A    between atoms: _93  and  _94
REMARK   38  A    between atoms: _93  and  _96
REMARK   39  A    between atoms: _96  and  _97
REMARK   40  A    between atoms: _103  and  _105
REMARK   41  A    between atoms: _105  and  _106
REMARK   42  A    between atoms: _105  and  _108
REMARK   43  A    between atoms: _108  and  _109
REMARK   44  A    between atoms: _112  and  _114
REMARK   45  A    between atoms: _114  and  _115
REMARK   46  A    between atoms: _114  and  _117
REMARK   47  A    between atoms: _117  and  _118
REMARK   48  A    between atoms: _124  and  _126
REMARK   49  A    between atoms: _126  and  _127
REMARK   50  A    between atoms: _126  and  _129
REMARK   51  A    between atoms: _129  and  _130
REMARK   52  A    between atoms: _135  and  _137
REMARK   53  A    between atoms: _137  and  _138
REMARK   54  A    between atoms: _137  and  _140
REMARK   55  A    between atoms: _140  and  _141
REMARK   56  A    between atoms: _141  and  _142
REMARK   57  A    between atoms: _147  and  _149
REMARK   58  A    between atoms: _149  and  _150
REMARK   59  A    between atoms: _149  and  _152
REMARK   60  A    between atoms: _152  and  _153
REMARK   61  A    between atoms: _153  and  _154
REMARK   62  A    between atoms: _157  and  _159
REMARK   63  A    between atoms: _159  and  _160
REMARK   64  A    between atoms: _163  and  _165
REMARK   65  A    between atoms: _165  and  _166
REMARK   66  A    between atoms: _165  and  _168
REMARK   67  A    between atoms: _171  and  _173
REMARK   68  A    between atoms: _173  and  _174
REMARK   69  A    between atoms: _177  and  _179
REMARK   70  A    between atoms: _179  and  _180
REMARK   71  A    between atoms: _179  and  _182
REMARK   72  A    between atoms: _182  and  _183
REMARK   73  A    between atoms: _189  and  _191
REMARK   74  A    between atoms: _191  and  _192
REMARK   75  A    between atoms: _194  and  _196
REMARK   76  A    between atoms: _196  and  _197
REMARK   77  A    between atoms: _196  and  _199
REMARK   78  A    between atoms: _199  and  _200
REMARK   79  A    between atoms: _200  and  _201
REMARK   80  A    between atoms: _201  and  _202
REMARK   81  A    between atoms: _202  and  _203
REMARK   82  A    between atoms: _207  and  _209
REMARK   83  A    between atoms: _209  and  _210
REMARK   84  A    between atoms: _209  and  _212
REMARK   85  A    between atoms: _212  and  _213
REMARK   86  A    between atoms: _216  and  _218
REMARK   87  A    between atoms: _218  and  _219
REMARK   88  A    between atoms: _218  and  _221
REMARK   89  A    between atoms: _221  and  _222
REMARK   90  A    between atoms: _225  and  _227
REMARK   91  A    between atoms: _227  and  _228
REMARK   92  A    between atoms: _227  and  _230
REMARK   93  A    between atoms: _230  and  _231
REMARK   94  A    between atoms: _236  and  _237
REMARK   95  A    between atoms: _239  and  _241
REMARK   96  A    between atoms: _241  and  _242
REMARK   97  A    between atoms: _241  and  _244
REMARK   98  A    between atoms: _244  and  _245
REMARK   99  A    between atoms: _248  and  _250
REMARK  100  A    between atoms: _250  and  _251
REMARK  101  A    between atoms: _250  and  _253
REMARK  102  A    between atoms: _253  and  _254
REMARK  103  A    between atoms: _264  and  _266
REMARK  104  A    between atoms: _266  and  _267
REMARK  105  A    between atoms: _266  and  _269
REMARK  106  A    between atoms: _269  and  _270
REMARK  107  A    between atoms: _273  and  _275
REMARK  108  A    between atoms: _275  and  _276
REMARK  109  A    between atoms: _275  and  _278
REMARK  110  A    between atoms: _278  and  _279
REMARK  111  A    between atoms: _279  and  _280
REMARK  112  A    between atoms: _283  and  _285
REMARK  113  A    between atoms: _285  and  _286
REMARK  114  A    between atoms: _285  and  _288
REMARK  115  A    between atoms: _288  and  _289
REMARK  116  A    between atoms: _294  and  _296
REMARK  117  A    between atoms: _296  and  _297
REMARK  118  A    between atoms: _296  and  _299
REMARK  119  A    between atoms: _299  and  _300
REMARK  120  A    between atoms: _300  and  _301
REMARK  121  A    between atoms: _306  and  _308
REMARK  122  A    between atoms: _308  and  _309
REMARK  123  A    between atoms: _308  and  _311
REMARK  124  A    between atoms: _311  and  _312
REMARK  125  A    between atoms: _317  and  _319
REMARK  126  A    between atoms: _319  and  _320
REMARK  127  A    between atoms: _319  and  _322
REMARK  128  A    between atoms: _322  and  _323
REMARK  129  A    between atoms: _329  and  _331
REMARK  130  A    between atoms: _331  and  _332
REMARK  131  A    between atoms: _331  and  _334
REMARK  132  A    between atoms: _334  and  _335
REMARK  133  A    between atoms: _337  and  _339
REMARK  134  A    between atoms: _339  and  _340
REMARK  135  A    between atoms: _339  and  _342
REMARK  136  A    between atoms: _342  and  _343
REMARK  137  A    between atoms: _348  and  _349
REMARK  138  A    between atoms: _351  and  _353
REMARK  139  A    between atoms: _353  and  _354
REMARK  140  A    between atoms: _353  and  _356
REMARK  141  A    between atoms: _356  and  _357
REMARK  142  A    between atoms: _362  and  _364
REMARK  143  A    between atoms: _364  and  _365
REMARK  144  A    between atoms: _364  and  _367
REMARK  145  A    between atoms: _367  and  _368
REMARK  146  A    between atoms: _368  and  _369
REMARK  147  A    between atoms: _371  and  _373
REMARK  148  A    between atoms: _373  and  _374
REMARK  149  A    between atoms: _373  and  _376
REMARK  150  A    between atoms: _376  and  _377
REMARK  151  A    between atoms: _377  and  _378
REMARK  152  A    between atoms: _381  and  _383
REMARK  153  A    between atoms: _383  and  _384
REMARK  154  A    between atoms: _383  and  _386
REMARK  155  A    between atoms: _386  and  _387
REMARK  156  A    between atoms: _387  and  _388
REMARK  157  A    between atoms: _388  and  _389
REMARK  158  A    between atoms: _389  and  _390
REMARK  159  A    between atoms: _394  and  _396
REMARK  160  A    between atoms: _396  and  _397
REMARK  161  A    between atoms: _400  and  _402
REMARK  162  A    between atoms: _402  and  _403
REMARK  163  A    between atoms: _402  and  _405
REMARK  164  A    between atoms: _408  and  _410
REMARK  165  A    between atoms: _410  and  _411
REMARK  166  A    between atoms: _410  and  _413
REMARK  167  A    between atoms: _413  and  _414
REMARK  168  A    between atoms: _417  and  _419
REMARK  169  A    between atoms: _419  and  _420
REMARK  170  A    between atoms: _419  and  _422
REMARK  171  A    between atoms: _424  and  _426
REMARK  172  A    between atoms: _426  and  _427
REMARK  173  A    between atoms: _426  and  _429
REMARK  174  A    between atoms: _429  and  _430
REMARK  175  A    between atoms: _433  and  _435
REMARK  176  A    between atoms: _435  and  _436
REMARK  177  A    between atoms: _435  and  _438
REMARK  178  A    between atoms: _439  and  _440
REMARK  179  A    between atoms: _440  and  _441
REMARK  180  A    between atoms: _441  and  _442
REMARK  181  A    between atoms: _446  and  _448
REMARK  182  A    between atoms: _448  and  _449
REMARK  183  A    between atoms: _448  and  _451
REMARK  184  A    between atoms: _451  and  _452
REMARK  185  A    between atoms: _452  and  _453
REMARK  186  A    between atoms: _456  and  _458
REMARK  187  A    between atoms: _458  and  _459
REMARK  188  A    between atoms: _458  and  _461
REMARK  189  A    between atoms: _461  and  _462
REMARK  190  A    between atoms: _467  and  _469
REMARK  191  A    between atoms: _469  and  _470
REMARK  192  A    between atoms: _469  and  _472
REMARK  193  A    between atoms: _472  and  _473
REMARK  194  A    between atoms: _478  and  _480
REMARK  195  A    between atoms: _480  and  _481
REMARK  196  A    between atoms: _480  and  _483
REMARK  197  A    between atoms: _486  and  _488
REMARK  198  A    between atoms: _488  and  _489
REMARK  199  A    between atoms: _488  and  _491
REMARK  200  A    between atoms: _491  and  _492
REMARK  201  A    between atoms: _497  and  _498
REMARK  202  A    between atoms: _500  and  _502
REMARK  203  A    between atoms: _502  and  _503
REMARK  204  A    between atoms: _502  and  _505
REMARK  205  A    between atoms: _505  and  _506
REMARK  206  A    between atoms: _506  and  _507
REMARK  207  A    between atoms: _511  and  _512
REMARK  208  A    between atoms: _517  and  _519
REMARK  209  A    between atoms: _519  and  _520
REMARK  210  A    between atoms: _519  and  _522
REMARK  211  A    between atoms: _522  and  _523
REMARK  212  A    between atoms: _528  and  _529
REMARK  213  A    between atoms: _531  and  _533
REMARK  214  A    between atoms: _533  and  _534
REMARK  215  A    between atoms: _533  and  _536
REMARK  216  A    between atoms: _536  and  _537
REMARK  217  A    between atoms: _542  and  _544
REMARK  218  A    between atoms: _544  and  _545
REMARK  219  A    between atoms: _544  and  _547
REMARK  220  A    between atoms: _547  and  _548
REMARK  221  A    between atoms: _551  and  _553
REMARK  222  A    between atoms: _553  and  _554
REMARK  223  A    between atoms: _553  and  _556
REMARK  224  A    between atoms: _556  and  _557
REMARK  225  A    between atoms: _560  and  _562
REMARK  226  A    between atoms: _562  and  _563
REMARK  227  A    between atoms: _562  and  _565
REMARK  228  A    between atoms: _565  and  _566
REMARK  229  A    between atoms: _569  and  _571
REMARK  230  A    between atoms: _571  and  _572
REMARK  231  A    between atoms: _575  and  _577
REMARK  232  A    between atoms: _577  and  _578
REMARK  233  A    between atoms: _577  and  _580
REMARK  234  A    between atoms: _580  and  _581
REMARK  235  A    between atoms: _581  and  _582
REMARK  236  A    between atoms: _582  and  _583
REMARK  237  A    between atoms: _583  and  _584
REMARK                            x       y       z     vdW  Elec       q    Type
REMARK                         _______ _______ _______ _____ _____    ______ ____
ROOT
ATOM      1  C   GLU A   1      -8.040 -28.469 -24.734  0.00  0.00    +0.238 C 
ATOM      2  O   GLU A   1      -8.007 -27.387 -24.141  0.00  0.00    -0.274 OA
ATOM      3  N   LYS A   2      -6.965 -29.016 -25.289  0.00  0.00    -0.298 N 
ATOM      4  H   LYS A   2      -7.062 -29.886 -25.851  0.00  0.00    +0.150 HD
ENDROOT
BRANCH   1   5
ATOM      5  CA  GLU A   1      -9.359 -29.229 -24.902  0.00  0.00    +0.145 C 
BRANCH   5   6
ATOM      6  N   GLU A   1      -9.549 -29.595 -26.295  0.00  0.00    -0.238 NA
ATOM      7  H   GLU A   1      -9.602 -30.600 -26.556  0.00  0.00    +0.142 HD
ENDBRANCH   5   6
BRANCH   5   8
ATOM      8  CB  GLU A   1      -9.416 -30.470 -24.007  0.00  0.00    +0.038 C 
BRANCH   8   9
ATOM      9  CG  GLU A   1      -9.247 -30.186 -22.523  0.00  0.00    +0.116 C 
BRANCH   9  10
ATOM     10  CD  GLU A   1      -9.740 -31.330 -21.641  0.00  0.00    +0.365 C 
ATOM     11  OE2 GLU A   1      -8.903 -32.148 -21.206  0.00  0.00    -0.246 OA
ATOM     12  OE1 GLU A   1     -10.962 -31.402 -21.371  0.00  0.00    -0.246 OA
ENDBRANCH   9  10
ENDBRANCH   8   9
ENDBRANCH   5   8
ENDBRANCH   1   5
BRANCH   3  13
ATOM     13  CA  LYS A   2      -5.653 -28.412 -25.119  0.00  0.00    +0.137 C 
BRANCH  13  14
ATOM     14  C   LYS A   2      -5.563 -27.037 -25.782  0.00  0.00    +0.227 C 
ATOM     15  O   LYS A   2      -4.833 -26.159 -25.310  0.00  0.00    -0.286 OA
ENDBRANCH  13  14
BRANCH  13  16
ATOM     16  CB  LYS A   2      -4.542 -29.343 -25.616  0.00  0.00    +0.028 C 
BRANCH  16  17
ATOM     17  CG  LYS A   2      -3.141 -28.810 -25.363  0.00  0.00    -0.000 C 
BRANCH  17  18
ATOM     18  CD  LYS A   2      -2.082 -29.897 -25.471  0.00  0.00    -0.024 C 
BRANCH  18  19
ATOM     19  CE  LYS A   2      -0.681 -29.335 -25.228  0.00  0.00    -0.086 C 
BRANCH  19  20
ATOM     20  NZ  LYS A   2       0.339 -30.400 -24.982  0.00  0.00    +0.380 N 
ATOM     21  HZ1 LYS A   2       0.068 -30.951 -24.142  0.00  0.00    -0.089 HD
ATOM     22  HZ2 LYS A   2       1.268 -29.959 -24.824  0.00  0.00    -0.089 HD
ATOM     23  HZ3 LYS A   2       0.388 -31.029 -25.809  0.00  0.00    -0.089 HD
ENDBRANCH  19  20
ENDBRANCH  18  19
ENDBRANCH  17  18
ENDBRANCH  16  17
ENDBRANCH  13  16
ENDBRANCH   3  13
TORSDOF 12
REMARK  Name = ../refined-set-2016/3qqa/3qqa_pocket.pdb
REMARK  237 active torsions:
REMARK  status: ('A' for Active; 'I' for Inactive)
REMARK    1  A    between atoms: _1  and  _3
REMARK    2  A    between atoms: _3  and  _4
REMARK    3  A    between atoms: _3  and  _6
REMARK    4  A    between atoms: _6  and  _7
REMARK    5  A    between atoms: _13  and  _15
REMARK    6  A    between atoms: _15  and  _16
REMARK    7  A    between atoms: _15  and  _18
REMARK    8  A    between atoms: _18  and  _19
REMARK    9  A    between atoms: _25  and  _27
REMARK   10  A    between atoms: _27  and  _28
REMARK   11  A    between atoms: _27  and  _30
REMARK   12  A    between atoms: _30  and  _31
REMARK   13  A    between atoms: _34  and  _36
REMARK   14  A    between atoms: _36  and  _37
REMARK   15  A    between atoms: _36  and  _39
REMARK   16  A    between atoms: _39  and  _40
REMARK   17  A    between atoms: _43  and  _45
REMARK   18  A    between atoms: _45  and  _46
REMARK   19  A    between atoms: _45  and  _48
REMARK   20  A    between atoms: _48  and  _49
REMARK   21  A    between atoms: _52  and  _54
REMARK   22  A    between atoms: _54  and  _55
REMARK   23  A    between atoms: _54  and  _57
REMARK   24  A    between atoms: _57  and  _58
REMARK   25  A    between atoms: _61  and  _63
REMARK   26  A    between atoms: _63  and  _64
REMARK   27  A    between atoms: _63  and  _66
REMARK   28  A    between atoms: _68  and  _70
REMARK   29  A    between atoms: _70  and  _71
REMARK   30  A    between atoms: _70  and  _73
REMARK   31  A    between atoms: _73  and  _74
REMARK   32  A    between atoms: _79  and  _81
REMARK   33  A    between atoms: _81  and  _82
REMARK   34  A    between atoms: _81  and  _84
REMARK   35  A    between atoms: _84  and  _85
REMARK   36  A    between atoms: _91  and  _93
REMARK   37  A    between atoms: _93  and  _94
REMARK   38  A    between atoms: _93  and  _96
REMARK   39  A    between atoms: _96  and  _97
REMARK   40  A    between atoms: _103  and  _105
REMARK   41  A    between atoms: _105  and  _106
REMARK   42  A    between atoms: _105  and  _108
REMARK   43  A    between atoms: _108  and  _109
REMARK   44  A    between atoms: _112  and  _114
REMARK   45  A    between atoms: _114  and  _115
REMARK   46  A    between atoms: _114  and  _117
REMARK   47  A    between atoms: _117  and  _118
REMARK   48  A    between atoms: _124  and  _126
REMARK   49  A    between atoms: _126  and  _127
REMARK   50  A    between atoms: _126  and  _129
REMARK   51  A    between atoms: _129  and  _130
REMARK   52  A    between atoms: _135  and  _137
REMARK   53  A    between atoms: _137  and  _138
REMARK   54  A    between atoms: _137  and  _140
REMARK   55  A    between atoms: _140  and  _141
REMARK   56  A    between atoms: _141  and  _142
REMARK   57  A    between atoms: _147  and  _149
REMARK   58  A    between atoms: _149  and  _150
REMARK   59  A    between atoms: _149  and  _152
REMARK   60  A    between atoms: _152  and  _153
REMARK   61  A    between atoms: _153  and  _154
REMARK   62  A    between atoms: _157  and  _159
REMARK   63  A    between atoms: _159  and  _160
REMARK   64  A    between atoms: _163  and  _165
REMARK   65  A    between atoms: _165  and  _166
REMARK   66  A    between atoms: _165  and  _168
REMARK   67  A    between atoms: _171  and  _173
REMARK   68  A    between atoms: _173  and  _174
REMARK   69  A    between atoms: _177  and  _179
REMARK   70  A    between atoms: _179  and  _180
REMARK   71  A    between atoms: _179  and  _182
REMARK   72  A    between atoms: _182  and  _183
REMARK   73  A    between atoms: _189  and  _191
REMARK   74  A    between atoms: _191  and  _192
REMARK   75  A    between atoms: _194  and  _196
REMARK   76  A    between atoms: _196  and  _197
REMARK   77  A    between atoms: _196  and  _199
REMARK   78  A    between atoms: _199  and  _200
REMARK   79  A    between atoms: _200  and  _201
REMARK   80  A    between atoms: _201  and  _202
REMARK   81  A    between atoms: _202  and  _203
REMARK   82  A    between atoms: _207  and  _209
REMARK   83  A    between atoms: _209  and  _210
REMARK   84  A    between atoms: _209  and  _212
REMARK   85  A    between atoms: _212  and  _213
REMARK   86  A    between atoms: _216  and  _218
REMARK   87  A    between atoms: _218  and  _219
REMARK   88  A    between atoms: _218  and  _221
REMARK   89  A    between atoms: _221  and  _222
REMARK   90  A    between atoms: _225  and  _227
REMARK   91  A    between atoms: _227  and  _228
REMARK   92  A    between atoms: _227  and  _230
REMARK   93  A    between atoms: _230  and  _231
REMARK   94  A    between atoms: _236  and  _237
REMARK   95  A    between atoms: _239  and  _241
REMARK   96  A    between atoms: _241  and  _242
REMARK   97  A    between atoms: _241  and  _244
REMARK   98  A    between atoms: _244  and  _245
REMARK   99  A    between atoms: _248  and  _250
REMARK  100  A    between atoms: _250  and  _251
REMARK  101  A    between atoms: _250  and  _253
REMARK  102  A    between atoms: _253  and  _254
REMARK  103  A    between atoms: _264  and  _266
REMARK  104  A    between atoms: _266  and  _267
REMARK  105  A    between atoms: _266  and  _269
REMARK  106  A    between atoms: _269  and  _270
REMARK  107  A    between atoms: _273  and  _275
REMARK  108  A    between atoms: _275  and  _276
REMARK  109  A    between atoms: _275  and  _278
REMARK  110  A    between atoms: _278  and  _279
REMARK  111  A    between atoms: _279  and  _280
REMARK  112  A    between atoms: _283  and  _285
REMARK  113  A    between atoms: _285  and  _286
REMARK  114  A    between atoms: _285  and  _288
REMARK  115  A    between atoms: _288  and  _289
REMARK  116  A    between atoms: _294  and  _296
REMARK  117  A    between atoms: _296  and  _297
REMARK  118  A    between atoms: _296  and  _299
REMARK  119  A    between atoms: _299  and  _300
REMARK  120  A    between atoms: _300  and  _301
REMARK  121  A    between atoms: _306  and  _308
REMARK  122  A    between atoms: _308  and  _309
REMARK  123  A    between atoms: _308  and  _311
REMARK  124  A    between atoms: _311  and  _312
REMARK  125  A    between atoms: _317  and  _319
REMARK  126  A    between atoms: _319  and  _320
REMARK  127  A    between atoms: _319  and  _322
REMARK  128  A    between atoms: _322  and  _323
REMARK  129  A    between atoms: _329  and  _331
REMARK  130  A    between atoms: _331  and  _332
REMARK  131  A    between atoms: _331  and  _334
REMARK  132  A    between atoms: _334  and  _335
REMARK  133  A    between atoms: _337  and  _339
REMARK  134  A    between atoms: _339  and  _340
REMARK  135  A    between atoms: _339  and  _342
REMARK  136  A    between atoms: _342  and  _343
REMARK  137  A    between atoms: _348  and  _349
REMARK  138  A    between atoms: _351  and  _353
REMARK  139  A    between atoms: _353  and  _354
REMARK  140  A    between atoms: _353  and  _356
REMARK  141  A    between atoms: _356  and  _357
REMARK  142  A    between atoms: _362  and  _364
REMARK  143  A    between atoms: _364  and  _365
REMARK  144  A    between atoms: _364  and  _367
REMARK  145  A    between atoms: _367  and  _368
REMARK  146  A    between atoms: _368  and  _369
REMARK  147  A    between atoms: _371  and  _373
REMARK  148  A    between atoms: _373  and  _374
REMARK  149  A    between atoms: _373  and  _376
REMARK  150  A    between atoms: _376  and  _377
REMARK  151  A    between atoms: _377  and  _378
REMARK  152  A    between atoms: _381  and  _383
REMARK  153  A    between atoms: _383  and  _384
REMARK  154  A    between atoms: _383  and  _386
REMARK  155  A    between atoms: _386  and  _387
REMARK  156  A    between atoms: _387  and  _388
REMARK  157  A    between atoms: _388  and  _389
REMARK  158  A    between atoms: _389  and  _390
REMARK  159  A    between atoms: _394  and  _396
REMARK  160  A    between atoms: _396  and  _397
REMARK  161  A    between atoms: _400  and  _402
REMARK  162  A    between atoms: _402  and  _403
REMARK  163  A    between atoms: _402  and  _405
REMARK  164  A    between atoms: _408  and  _410
REMARK  165  A    between atoms: _410  and  _411
REMARK  166  A    between atoms: _410  and  _413
REMARK  167  A    between atoms: _413  and  _414
REMARK  168  A    between atoms: _417  and  _419
REMARK  169  A    between atoms: _419  and  _420
REMARK  170  A    between atoms: _419  and  _422
REMARK  171  A    between atoms: _424  and  _426
REMARK  172  A    between atoms: _426  and  _427
REMARK  173  A    between atoms: _426  and  _429
REMARK  174  A    between atoms: _429  and  _430
REMARK  175  A    between atoms: _433  and  _435
REMARK  176  A    between atoms: _435  and  _436
REMARK  177  A    between atoms: _435  and  _438
REMARK  178  A    between atoms: _439  and  _440
REMARK  179  A    between atoms: _440  and  _441
REMARK  180  A    between atoms: _441  and  _442
REMARK  181  A    between atoms: _446  and  _448
REMARK  182  A    between atoms: _448  and  _449
REMARK  183  A    between atoms: _448  and  _451
REMARK  184  A    between atoms: _451  and  _452
REMARK  185  A    between atoms: _452  and  _453
REMARK  186  A    between atoms: _456  and  _458
REMARK  187  A    between atoms: _458  and  _459
REMARK  188  A    between atoms: _458  and  _461
REMARK  189  A    between atoms: _461  and  _462
REMARK  190  A    between atoms: _467  and  _469
REMARK  191  A    between atoms: _469  and  _470
REMARK  192  A    between atoms: _469  and  _472
REMARK  193  A    between atoms: _472  and  _473
REMARK  194  A    between atoms: _478  and  _480
REMARK  195  A    between atoms: _480  and  _481
REMARK  196  A    between atoms: _480  and  _483
REMARK  197  A    between atoms: _486  and  _488
REMARK  198  A    between atoms: _488  and  _489
REMARK  199  A    between atoms: _488  and  _491
REMARK  200  A    between atoms: _491  and  _492
REMARK  201  A    between atoms: _497  and  _498
REMARK  202  A    between atoms: _500  and  _502
REMARK  203  A    between atoms: _502  and  _503
REMARK  204  A    between atoms: _502  and  _505
REMARK  205  A    between atoms: _505  and  _506
REMARK  206  A    between atoms: _506  and  _507
REMARK  207  A    between atoms: _511  and  _512
REMARK  208  A    between atoms: _517  and  _519
REMARK  209  A    between atoms: _519  and  _520
REMARK  210  A    between atoms: _519  and  _522
REMARK  211  A    between atoms: _522  and  _523
REMARK  212  A    between atoms: _528  and  _529
REMARK  213  A    between atoms: _531  and  _533
REMARK  214  A    between atoms: _533  and  _534
REMARK  215  A    between atoms: _533  and  _536
REMARK  216  A    between atoms: _536  and  _537
REMARK  217  A    between atoms: _542  and  _544
REMARK  218  A    between atoms: _544  and  _545
REMARK  219  A    between atoms: _544  and  _547
REMARK  220  A    between atoms: _547  and  _548
REMARK  221  A    between atoms: _551  and  _553
REMARK  222  A    between atoms: _553  and  _554
REMARK  223  A    between atoms: _553  and  _556
REMARK  224  A    between atoms: _556  and  _557
REMARK  225  A    between atoms: _560  and  _562
REMARK  226  A    between atoms: _562  and  _563
REMARK  227  A    between atoms: _562  and  _565
REMARK  228  A    between atoms: _565  and  _566
REMARK  229  A    between atoms: _569  and  _571
REMARK  230  A    between atoms: _571  and  _572
REMARK  231  A    between atoms: _575  and  _577
REMARK  232  A    between atoms: _577  and  _578
REMARK  233  A    between atoms: _577  and  _580
REMARK  234  A    between atoms: _580  and  _581
REMARK  235  A    between atoms: _581  and  _582
REMARK  236  A    between atoms: _582  and  _583
REMARK  237  A    between atoms: _583  and  _584
REMARK                            x       y       z     vdW  Elec       q    Type
REMARK                         _______ _______ _______ _____ _____    ______ ____
ROOT
ATOM      1  CA  VAL A   2      -6.625 -24.319 -22.367  0.00  0.00    +0.148 C 
ENDROOT
BRANCH   1   3
ATOM      2  C   ALA A   1      -8.200 -23.728 -24.113  0.00  0.00    +0.238 C 
ATOM      3  N   VAL A   2      -7.422 -24.640 -23.538  0.00  0.00    -0.297 N 
ATOM      4  H   VAL A   2      -7.383 -25.601 -23.934  0.00  0.00    +0.150 HD
ATOM      5  O   ALA A   1      -8.226 -22.540 -23.771  0.00  0.00    -0.274 OA
BRANCH   2   6
ATOM      6  CA  ALA A   1      -9.075 -24.244 -25.244  0.00  0.00    +0.145 C 
ATOM      7  CB  ALA A   1     -10.215 -25.079 -24.678  0.00  0.00    +0.028 C 
BRANCH   6   8
ATOM      8  N   ALA A   1      -8.248 -25.048 -26.124  0.00  0.00    -0.238 NA
ATOM      9  H   ALA A   1      -8.518 -26.036 -26.306  0.00  0.00    +0.142 HD
ENDBRANCH   6   8
ENDBRANCH   2   6
ENDBRANCH   1   3
BRANCH   1  10
ATOM     10  C   VAL A   2      -5.453 -23.443 -22.753  0.00  0.00    +0.241 C 
ATOM     11  O   VAL A   2      -5.029 -22.588 -21.984  0.00  0.00    -0.273 OA
ATOM     12  N   LEU A   3      -4.944 -23.645 -23.959  0.00  0.00    -0.298 N 
ATOM     13  H   LEU A   3      -5.330 -24.403 -24.558  0.00  0.00    +0.150 HD
BRANCH  12  14
ATOM     14  CA  LEU A   3      -3.858 -22.826 -24.456  0.00  0.00    +0.137 C 
BRANCH  14  15
ATOM     15  C   LEU A   3      -4.316 -21.370 -24.620  0.00  0.00    +0.227 C 
ATOM     16  O   LEU A   3      -3.598 -20.434 -24.272  0.00  0.00    -0.286 OA
ENDBRANCH  14  15
BRANCH  14  17
ATOM     17  CB  LEU A   3      -3.348 -23.371 -25.787  0.00  0.00    +0.028 C 
BRANCH  17  18
ATOM     18  CG  LEU A   3      -2.200 -22.553 -26.364  0.00  0.00    +0.002 C 
ATOM     19  CD2 LEU A   3      -1.098 -22.502 -25.342  0.00  0.00    +0.000 C 
ATOM     20  CD1 LEU A   3      -1.694 -23.126 -27.687  0.00  0.00    +0.000 C 
ENDBRANCH  17  18
ENDBRANCH  14  17
ENDBRANCH  12  14
ENDBRANCH   1  10
BRANCH   1  21
ATOM     21  CB  VAL A   2      -6.144 -25.581 -21.646  0.00  0.00    +0.027 C 
ATOM     22  CG2 VAL A   2      -5.073 -25.228 -20.619  0.00  0.00    +0.002 C 
ATOM     23  CG1 VAL A   2      -7.334 -26.273 -20.981  0.00  0.00    +0.002 C 
ENDBRANCH   1  21
TORSDOF 9
REMARK  Name = ../refined-set-2016/3qqa/3qqa_pocket.pdb
REMARK  237 active torsions:
REMARK  status: ('A' for Active; 'I' for Inactive)
REMARK    1  A    between atoms: _1  and  _3
REMARK    2  A    between atoms: _3  and  _4
REMARK    3  A    between atoms: _3  and  _6
REMARK    4  A    between atoms: _6  and  _7
REMARK    5  A    between atoms: _13  and  _15
REMARK    6  A    between atoms: _15  and  _16
REMARK    7  A    between atoms: _15  and  _18
REMARK    8  A    between atoms: _18  and  _19
REMARK    9  A    between atoms: _25  and  _27
REMARK   10  A    between atoms: _27  and  _28
REMARK   11  A    between atoms: _27  and  _30
REMARK   12  A    between atoms: _30  and  _31
REMARK   13  A    between atoms: _34  and  _36
REMARK   14  A    between atoms: _36  and  _37
REMARK   15  A    between atoms: _36  and  _39
REMARK   16  A    between atoms: _39  and  _40
REMARK   17  A    between atoms: _43  and  _45
REMARK   18  A    between atoms: _45  and  _46
REMARK   19  A    between atoms: _45  and  _48
REMARK   20  A    between atoms: _48  and  _49
REMARK   21  A    between atoms: _52  and  _54
REMARK   22  A    between atoms: _54  and  _55
REMARK   23  A    between atoms: _54  and  _57
REMARK   24  A    between atoms: _57  and  _58
REMARK   25  A    between atoms: _61  and  _63
REMARK   26  A    between atoms: _63  and  _64
REMARK   27  A    between atoms: _63  and  _66
REMARK   28  A    between atoms: _68  and  _70
REMARK   29  A    between atoms: _70  and  _71
REMARK   30  A    between atoms: _70  and  _73
REMARK   31  A    between atoms: _73  and  _74
REMARK   32  A    between atoms: _79  and  _81
REMARK   33  A    between atoms: _81  and  _82
REMARK   34  A    between atoms: _81  and  _84
REMARK   35  A    between atoms: _84  and  _85
REMARK   36  A    between atoms: _91  and  _93
REMARK   37  A    between atoms: _93  and  _94
REMARK   38  A    between atoms: _93  and  _96
REMARK   39  A    between atoms: _96  and  _97
REMARK   40  A    between atoms: _103  and  _105
REMARK   41  A    between atoms: _105  and  _106
REMARK   42  A    between atoms: _105  and  _108
REMARK   43  A    between atoms: _108  and  _109
REMARK   44  A    between atoms: _112  and  _114
REMARK   45  A    between atoms: _114  and  _115
REMARK   46  A    between atoms: _114  and  _117
REMARK   47  A    between atoms: _117  and  _118
REMARK   48  A    between atoms: _124  and  _126
REMARK   49  A    between atoms: _126  and  _127
REMARK   50  A    between atoms: _126  and  _129
REMARK   51  A    between atoms: _129  and  _130
REMARK   52  A    between atoms: _135  and  _137
REMARK   53  A    between atoms: _137  and  _138
REMARK   54  A    between atoms: _137  and  _140
REMARK   55  A    between atoms: _140  and  _141
REMARK   56  A    between atoms: _141  and  _142
REMARK   57  A    between atoms: _147  and  _149
REMARK   58  A    between atoms: _149  and  _150
REMARK   59  A    between atoms: _149  and  _152
REMARK   60  A    between atoms: _152  and  _153
REMARK   61  A    between atoms: _153  and  _154
REMARK   62  A    between atoms: _157  and  _159
REMARK   63  A    between atoms: _159  and  _160
REMARK   64  A    between atoms: _163  and  _165
REMARK   65  A    between atoms: _165  and  _166
REMARK   66  A    between atoms: _165  and  _168
REMARK   67  A    between atoms: _171  and  _173
REMARK   68  A    between atoms: _173  and  _174
REMARK   69  A    between atoms: _177  and  _179
REMARK   70  A    between atoms: _179  and  _180
REMARK   71  A    between atoms: _179  and  _182
REMARK   72  A    between atoms: _182  and  _183
REMARK   73  A    between atoms: _189  and  _191
REMARK   74  A    between atoms: _191  and  _192
REMARK   75  A    between atoms: _194  and  _196
REMARK   76  A    between atoms: _196  and  _197
REMARK   77  A    between atoms: _196  and  _199
REMARK   78  A    between atoms: _199  and  _200
REMARK   79  A    between atoms: _200  and  _201
REMARK   80  A    between atoms: _201  and  _202
REMARK   81  A    between atoms: _202  and  _203
REMARK   82  A    between atoms: _207  and  _209
REMARK   83  A    between atoms: _209  and  _210
REMARK   84  A    between atoms: _209  and  _212
REMARK   85  A    between atoms: _212  and  _213
REMARK   86  A    between atoms: _216  and  _218
REMARK   87  A    between atoms: _218  and  _219
REMARK   88  A    between atoms: _218  and  _221
REMARK   89  A    between atoms: _221  and  _222
REMARK   90  A    between atoms: _225  and  _227
REMARK   91  A    between atoms: _227  and  _228
REMARK   92  A    between atoms: _227  and  _230
REMARK   93  A    between atoms: _230  and  _231
REMARK   94  A    between atoms: _236  and  _237
REMARK   95  A    between atoms: _239  and  _241
REMARK   96  A    between atoms: _241  and  _242
REMARK   97  A    between atoms: _241  and  _244
REMARK   98  A    between atoms: _244  and  _245
REMARK   99  A    between atoms: _248  and  _250
REMARK  100  A    between atoms: _250  and  _251
REMARK  101  A    between atoms: _250  and  _253
REMARK  102  A    between atoms: _253  and  _254
REMARK  103  A    between atoms: _264  and  _266
REMARK  104  A    between atoms: _266  and  _267
REMARK  105  A    between atoms: _266  and  _269
REMARK  106  A    between atoms: _269  and  _270
REMARK  107  A    between atoms: _273  and  _275
REMARK  108  A    between atoms: _275  and  _276
REMARK  109  A    between atoms: _275  and  _278
REMARK  110  A    between atoms: _278  and  _279
REMARK  111  A    between atoms: _279  and  _280
REMARK  112  A    between atoms: _283  and  _285
REMARK  113  A    between atoms: _285  and  _286
REMARK  114  A    between atoms: _285  and  _288
REMARK  115  A    between atoms: _288  and  _289
REMARK  116  A    between atoms: _294  and  _296
REMARK  117  A    between atoms: _296  and  _297
REMARK  118  A    between atoms: _296  and  _299
REMARK  119  A    between atoms: _299  and  _300
REMARK  120  A    between atoms: _300  and  _301
REMARK  121  A    between atoms: _306  and  _308
REMARK  122  A    between atoms: _308  and  _309
REMARK  123  A    between atoms: _308  and  _311
REMARK  124  A    between atoms: _311  and  _312
REMARK  125  A    between atoms: _317  and  _319
REMARK  126  A    between atoms: _319  and  _320
REMARK  127  A    between atoms: _319  and  _322
REMARK  128  A    between atoms: _322  and  _323
REMARK  129  A    between atoms: _329  and  _331
REMARK  130  A    between atoms: _331  and  _332
REMARK  131  A    between atoms: _331  and  _334
REMARK  132  A    between atoms: _334  and  _335
REMARK  133  A    between atoms: _337  and  _339
REMARK  134  A    between atoms: _339  and  _340
REMARK  135  A    between atoms: _339  and  _342
REMARK  136  A    between atoms: _342  and  _343
REMARK  137  A    between atoms: _348  and  _349
REMARK  138  A    between atoms: _351  and  _353
REMARK  139  A    between atoms: _353  and  _354
REMARK  140  A    between atoms: _353  and  _356
REMARK  141  A    between atoms: _356  and  _357
REMARK  142  A    between atoms: _362  and  _364
REMARK  143  A    between atoms: _364  and  _365
REMARK  144  A    between atoms: _364  and  _367
REMARK  145  A    between atoms: _367  and  _368
REMARK  146  A    between atoms: _368  and  _369
REMARK  147  A    between atoms: _371  and  _373
REMARK  148  A    between atoms: _373  and  _374
REMARK  149  A    between atoms: _373  and  _376
REMARK  150  A    between atoms: _376  and  _377
REMARK  151  A    between atoms: _377  and  _378
REMARK  152  A    between atoms: _381  and  _383
REMARK  153  A    between atoms: _383  and  _384
REMARK  154  A    between atoms: _383  and  _386
REMARK  155  A    between atoms: _386  and  _387
REMARK  156  A    between atoms: _387  and  _388
REMARK  157  A    between atoms: _388  and  _389
REMARK  158  A    between atoms: _389  and  _390
REMARK  159  A    between atoms: _394  and  _396
REMARK  160  A    between atoms: _396  and  _397
REMARK  161  A    between atoms: _400  and  _402
REMARK  162  A    between atoms: _402  and  _403
REMARK  163  A    between atoms: _402  and  _405
REMARK  164  A    between atoms: _408  and  _410
REMARK  165  A    between atoms: _410  and  _411
REMARK  166  A    between atoms: _410  and  _413
REMARK  167  A    between atoms: _413  and  _414
REMARK  168  A    between atoms: _417  and  _419
REMARK  169  A    between atoms: _419  and  _420
REMARK  170  A    between atoms: _419  and  _422
REMARK  171  A    between atoms: _424  and  _426
REMARK  172  A    between atoms: _426  and  _427
REMARK  173  A    between atoms: _426  and  _429
REMARK  174  A    between atoms: _429  and  _430
REMARK  175  A    between atoms: _433  and  _435
REMARK  176  A    between atoms: _435  and  _436
REMARK  177  A    between atoms: _435  and  _438
REMARK  178  A    between atoms: _439  and  _440
REMARK  179  A    between atoms: _440  and  _441
REMARK  180  A    between atoms: _441  and  _442
REMARK  181  A    between atoms: _446  and  _448
REMARK  182  A    between atoms: _448  and  _449
REMARK  183  A    between atoms: _448  and  _451
REMARK  184  A    between atoms: _451  and  _452
REMARK  185  A    between atoms: _452  and  _453
REMARK  186  A    between atoms: _456  and  _458
REMARK  187  A    between atoms: _458  and  _459
REMARK  188  A    between atoms: _458  and  _461
REMARK  189  A    between atoms: _461  and  _462
REMARK  190  A    between atoms: _467  and  _469
REMARK  191  A    between atoms: _469  and  _470
REMARK  192  A    between atoms: _469  and  _472
REMARK  193  A    between atoms: _472  and  _473
REMARK  194  A    between atoms: _478  and  _480
REMARK  195  A    between atoms: _480  and  _481
REMARK  196  A    between atoms: _480  and  _483
REMARK  197  A    between atoms: _486  and  _488
REMARK  198  A    between atoms: _488  and  _489
REMARK  199  A    between atoms: _488  and  _491
REMARK  200  A    between atoms: _491  and  _492
REMARK  201  A    between atoms: _497  and  _498
REMARK  202  A    between atoms: _500  and  _502
REMARK  203  A    between atoms: _502  and  _503
REMARK  204  A    between atoms: _502  and  _505
REMARK  205  A    between atoms: _505  and  _506
REMARK  206  A    between atoms: _506  and  _507
REMARK  207  A    between atoms: _511  and  _512
REMARK  208  A    between atoms: _517  and  _519
REMARK  209  A    between atoms: _519  and  _520
REMARK  210  A    between atoms: _519  and  _522
REMARK  211  A    between atoms: _522  and  _523
REMARK  212  A    between atoms: _528  and  _529
REMARK  213  A    between atoms: _531  and  _533
REMARK  214  A    between atoms: _533  and  _534
REMARK  215  A    between atoms: _533  and  _536
REMARK  216  A    between atoms: _536  and  _537
REMARK  217  A    between atoms: _542  and  _544
REMARK  218  A    between atoms: _544  and  _545
REMARK  219  A    between atoms: _544  and  _547
REMARK  220  A    between atoms: _547  and  _548
REMARK  221  A    between atoms: _551  and  _553
REMARK  222  A    between atoms: _553  and  _554
REMARK  223  A    between atoms: _553  and  _556
REMARK  224  A    between atoms: _556  and  _557
REMARK  225  A    between atoms: _560  and  _562
REMARK  226  A    between atoms: _562  and  _563
REMARK  227  A    between atoms: _562  and  _565
REMARK  228  A    between atoms: _565  and  _566
REMARK  229  A    between atoms: _569  and  _571
REMARK  230  A    between atoms: _571  and  _572
REMARK  231  A    between atoms: _575  and  _577
REMARK  232  A    between atoms: _577  and  _578
REMARK  233  A    between atoms: _577  and  _580
REMARK  234  A    between atoms: _580  and  _581
REMARK  235  A    between atoms: _581  and  _582
REMARK  236  A    between atoms: _582  and  _583
REMARK  237  A    between atoms: _583  and  _584
REMARK                            x       y       z     vdW  Elec       q    Type
REMARK                         _______ _______ _______ _____ _____    ______ ____
ROOT
ATOM      1  C   CYS A   1      -6.018 -18.669 -21.200  0.00  0.00    +0.239 C 
ATOM      2  O   CYS A   1      -5.959 -17.614 -20.571  0.00  0.00    -0.274 OA
ATOM      3  N   THR A   2      -4.992 -19.506 -21.306  0.00  0.00    -0.296 N 
ATOM      4  H   THR A   2      -5.110 -20.379 -21.859  0.00  0.00    +0.150 HD
ENDROOT
BRANCH   1   5
ATOM      5  CA  CYS A   1      -7.301 -19.076 -21.919  0.00  0.00    +0.156 C 
BRANCH   5   6
ATOM      6  N   CYS A   1      -7.033 -19.667 -23.228  0.00  0.00    -0.237 NA
ATOM      7  H   CYS A   1      -7.430 -20.605 -23.440  0.00  0.00    +0.142 HD
ENDBRANCH   5   6
BRANCH   5   8
ATOM      8  CB  CYS A   1      -8.097 -20.054 -21.056  0.00  0.00    +0.095 C 
ATOM      9  SG  CYS A   1      -9.806 -20.355 -21.680  0.00  0.00    -0.080 S 
ENDBRANCH   5   8
ENDBRANCH   1   5
BRANCH   3  10
ATOM     10  CA  THR A   2      -3.703 -19.241 -20.671  0.00  0.00    +0.164 C 
BRANCH  10  11
ATOM     11  CB  THR A   2      -2.803 -20.508 -20.736  0.00  0.00    +0.136 C 
ATOM     12  CG2 THR A   2      -1.426 -20.243 -20.191  0.00  0.00    +0.034 C 
BRANCH  11  13
ATOM     13  OG1 THR A   2      -3.408 -21.554 -19.966  0.00  0.00    -0.382 OA
ATOM     14  HG1 THR A   2      -4.302 -21.761 -20.338  0.00  0.00    +0.210 HD
ENDBRANCH  11  13
ENDBRANCH  10  11
BRANCH  10  15
ATOM     15  C   THR A   2      -2.991 -18.010 -21.265  0.00  0.00    +0.229 C 
ATOM     16  O   THR A   2      -2.537 -17.120 -20.537  0.00  0.00    -0.286 OA
ENDBRANCH  10  15
ENDBRANCH   3  10
TORSDOF 7
REMARK  Name = ../refined-set-2016/3qqa/3qqa_pocket.pdb
REMARK  237 active torsions:
REMARK  status: ('A' for Active; 'I' for Inactive)
REMARK    1  A    between atoms: _1  and  _3
REMARK    2  A    between atoms: _3  and  _4
REMARK    3  A    between atoms: _3  and  _6
REMARK    4  A    between atoms: _6  and  _7
REMARK    5  A    between atoms: _13  and  _15
REMARK    6  A    between atoms: _15  and  _16
REMARK    7  A    between atoms: _15  and  _18
REMARK    8  A    between atoms: _18  and  _19
REMARK    9  A    between atoms: _25  and  _27
REMARK   10  A    between atoms: _27  and  _28
REMARK   11  A    between atoms: _27  and  _30
REMARK   12  A    between atoms: _30  and  _31
REMARK   13  A    between atoms: _34  and  _36
REMARK   14  A    between atoms: _36  and  _37
REMARK   15  A    between atoms: _36  and  _39
REMARK   16  A    between atoms: _39  and  _40
REMARK   17  A    between atoms: _43  and  _45
REMARK   18  A    between atoms: _45  and  _46
REMARK   19  A    between atoms: _45  and  _48
REMARK   20  A    between atoms: _48  and  _49
REMARK   21  A    between atoms: _52  and  _54
REMARK   22  A    between atoms: _54  and  _55
REMARK   23  A    between atoms: _54  and  _57
REMARK   24  A    between atoms: _57  and  _58
REMARK   25  A    between atoms: _61  and  _63
REMARK   26  A    between atoms: _63  and  _64
REMARK   27  A    between atoms: _63  and  _66
REMARK   28  A    between atoms: _68  and  _70
REMARK   29  A    between atoms: _70  and  _71
REMARK   30  A    between atoms: _70  and  _73
REMARK   31  A    between atoms: _73  and  _74
REMARK   32  A    between atoms: _79  and  _81
REMARK   33  A    between atoms: _81  and  _82
REMARK   34  A    between atoms: _81  and  _84
REMARK   35  A    between atoms: _84  and  _85
REMARK   36  A    between atoms: _91  and  _93
REMARK   37  A    between atoms: _93  and  _94
REMARK   38  A    between atoms: _93  and  _96
REMARK   39  A    between atoms: _96  and  _97
REMARK   40  A    between atoms: _103  and  _105
REMARK   41  A    between atoms: _105  and  _106
REMARK   42  A    between atoms: _105  and  _108
REMARK   43  A    between atoms: _108  and  _109
REMARK   44  A    between atoms: _112  and  _114
REMARK   45  A    between atoms: _114  and  _115
REMARK   46  A    between atoms: _114  and  _117
REMARK   47  A    between atoms: _117  and  _118
REMARK   48  A    between atoms: _124  and  _126
REMARK   49  A    between atoms: _126  and  _127
REMARK   50  A    between atoms: _126  and  _129
REMARK   51  A    between atoms: _129  and  _130
REMARK   52  A    between atoms: _135  and  _137
REMARK   53  A    between atoms: _137  and  _138
REMARK   54  A    between atoms: _137  and  _140
REMARK   55  A    between atoms: _140  and  _141
REMARK   56  A    between atoms: _141  and  _142
REMARK   57  A    between atoms: _147  and  _149
REMARK   58  A    between atoms: _149  and  _150
REMARK   59  A    between atoms: _149  and  _152
REMARK   60  A    between atoms: _152  and  _153
REMARK   61  A    between atoms: _153  and  _154
REMARK   62  A    between atoms: _157  and  _159
REMARK   63  A    between atoms: _159  and  _160
REMARK   64  A    between atoms: _163  and  _165
REMARK   65  A    between atoms: _165  and  _166
REMARK   66  A    between atoms: _165  and  _168
REMARK   67  A    between atoms: _171  and  _173
REMARK   68  A    between atoms: _173  and  _174
REMARK   69  A    between atoms: _177  and  _179
REMARK   70  A    between atoms: _179  and  _180
REMARK   71  A    between atoms: _179  and  _182
REMARK   72  A    between atoms: _182  and  _183
REMARK   73  A    between atoms: _189  and  _191
REMARK   74  A    between atoms: _191  and  _192
REMARK   75  A    between atoms: _194  and  _196
REMARK   76  A    between atoms: _196  and  _197
REMARK   77  A    between atoms: _196  and  _199
REMARK   78  A    between atoms: _199  and  _200
REMARK   79  A    between atoms: _200  and  _201
REMARK   80  A    between atoms: _201  and  _202
REMARK   81  A    between atoms: _202  and  _203
REMARK   82  A    between atoms: _207  and  _209
REMARK   83  A    between atoms: _209  and  _210
REMARK   84  A    between atoms: _209  and  _212
REMARK   85  A    between atoms: _212  and  _213
REMARK   86  A    between atoms: _216  and  _218
REMARK   87  A    between atoms: _218  and  _219
REMARK   88  A    between atoms: _218  and  _221
REMARK   89  A    between atoms: _221  and  _222
REMARK   90  A    between atoms: _225  and  _227
REMARK   91  A    between atoms: _227  and  _228
REMARK   92  A    between atoms: _227  and  _230
REMARK   93  A    between atoms: _230  and  _231
REMARK   94  A    between atoms: _236  and  _237
REMARK   95  A    between atoms: _239  and  _241
REMARK   96  A    between atoms: _241  and  _242
REMARK   97  A    between atoms: _241  and  _244
REMARK   98  A    between atoms: _244  and  _245
REMARK   99  A    between atoms: _248  and  _250
REMARK  100  A    between atoms: _250  and  _251
REMARK  101  A    between atoms: _250  and  _253
REMARK  102  A    between atoms: _253  and  _254
REMARK  103  A    between atoms: _264  and  _266
REMARK  104  A    between atoms: _266  and  _267
REMARK  105  A    between atoms: _266  and  _269
REMARK  106  A    between atoms: _269  and  _270
REMARK  107  A    between atoms: _273  and  _275
REMARK  108  A    between atoms: _275  and  _276
REMARK  109  A    between atoms: _275  and  _278
REMARK  110  A    between atoms: _278  and  _279
REMARK  111  A    between atoms: _279  and  _280
REMARK  112  A    between atoms: _283  and  _285
REMARK  113  A    between atoms: _285  and  _286
REMARK  114  A    between atoms: _285  and  _288
REMARK  115  A    between atoms: _288  and  _289
REMARK  116  A    between atoms: _294  and  _296
REMARK  117  A    between atoms: _296  and  _297
REMARK  118  A    between atoms: _296  and  _299
REMARK  119  A    between atoms: _299  and  _300
REMARK  120  A    between atoms: _300  and  _301
REMARK  121  A    between atoms: _306  and  _308
REMARK  122  A    between atoms: _308  and  _309
REMARK  123  A    between atoms: _308  and  _311
REMARK  124  A    between atoms: _311  and  _312
REMARK  125  A    between atoms: _317  and  _319
REMARK  126  A    between atoms: _319  and  _320
REMARK  127  A    between atoms: _319  and  _322
REMARK  128  A    between atoms: _322  and  _323
REMARK  129  A    between atoms: _329  and  _331
REMARK  130  A    between atoms: _331  and  _332
REMARK  131  A    between atoms: _331  and  _334
REMARK  132  A    between atoms: _334  and  _335
REMARK  133  A    between atoms: _337  and  _339
REMARK  134  A    between atoms: _339  and  _340
REMARK  135  A    between atoms: _339  and  _342
REMARK  136  A    between atoms: _342  and  _343
REMARK  137  A    between atoms: _348  and  _349
REMARK  138  A    between atoms: _351  and  _353
REMARK  139  A    between atoms: _353  and  _354
REMARK  140  A    between atoms: _353  and  _356
REMARK  141  A    between atoms: _356  and  _357
REMARK  142  A    between atoms: _362  and  _364
REMARK  143  A    between atoms: _364  and  _365
REMARK  144  A    between atoms: _364  and  _367
REMARK  145  A    between atoms: _367  and  _368
REMARK  146  A    between atoms: _368  and  _369
REMARK  147  A    between atoms: _371  and  _373
REMARK  148  A    between atoms: _373  and  _374
REMARK  149  A    between atoms: _373  and  _376
REMARK  150  A    between atoms: _376  and  _377
REMARK  151  A    between atoms: _377  and  _378
REMARK  152  A    between atoms: _381  and  _383
REMARK  153  A    between atoms: _383  and  _384
REMARK  154  A    between atoms: _383  and  _386
REMARK  155  A    between atoms: _386  and  _387
REMARK  156  A    between atoms: _387  and  _388
REMARK  157  A    between atoms: _388  and  _389
REMARK  158  A    between atoms: _389  and  _390
REMARK  159  A    between atoms: _394  and  _396
REMARK  160  A    between atoms: _396  and  _397
REMARK  161  A    between atoms: _400  and  _402
REMARK  162  A    between atoms: _402  and  _403
REMARK  163  A    between atoms: _402  and  _405
REMARK  164  A    between atoms: _408  and  _410
REMARK  165  A    between atoms: _410  and  _411
REMARK  166  A    between atoms: _410  and  _413
REMARK  167  A    between atoms: _413  and  _414
REMARK  168  A    between atoms: _417  and  _419
REMARK  169  A    between atoms: _419  and  _420
REMARK  170  A    between atoms: _419  and  _422
REMARK  171  A    between atoms: _424  and  _426
REMARK  172  A    between atoms: _426  and  _427
REMARK  173  A    between atoms: _426  and  _429
REMARK  174  A    between atoms: _429  and  _430
REMARK  175  A    between atoms: _433  and  _435
REMARK  176  A    between atoms: _435  and  _436
REMARK  177  A    between atoms: _435  and  _438
REMARK  178  A    between atoms: _439  and  _440
REMARK  179  A    between atoms: _440  and  _441
REMARK  180  A    between atoms: _441  and  _442
REMARK  181  A    between atoms: _446  and  _448
REMARK  182  A    between atoms: _448  and  _449
REMARK  183  A    between atoms: _448  and  _451
REMARK  184  A    between atoms: _451  and  _452
REMARK  185  A    between atoms: _452  and  _453
REMARK  186  A    between atoms: _456  and  _458
REMARK  187  A    between atoms: _458  and  _459
REMARK  188  A    between atoms: _458  and  _461
REMARK  189  A    between atoms: _461  and  _462
REMARK  190  A    between atoms: _467  and  _469
REMARK  191  A    between atoms: _469  and  _470
REMARK  192  A    between atoms: _469  and  _472
REMARK  193  A    between atoms: _472  and  _473
REMARK  194  A    between atoms: _478  and  _480
REMARK  195  A    between atoms: _480  and  _481
REMARK  196  A    between atoms: _480  and  _483
REMARK  197  A    between atoms: _486  and  _488
REMARK  198  A    between atoms: _488  and  _489
REMARK  199  A    between atoms: _488  and  _491
REMARK  200  A    between atoms: _491  and  _492
REMARK  201  A    between atoms: _497  and  _498
REMARK  202  A    between atoms: _500  and  _502
REMARK  203  A    between atoms: _502  and  _503
REMARK  204  A    between atoms: _502  and  _505
REMARK  205  A    between atoms: _505  and  _506
REMARK  206  A    between atoms: _506  and  _507
REMARK  207  A    between atoms: _511  and  _512
REMARK  208  A    between atoms: _517  and  _519
REMARK  209  A    between atoms: _519  and  _520
REMARK  210  A    between atoms: _519  and  _522
REMARK  211  A    between atoms: _522  and  _523
REMARK  212  A    between atoms: _528  and  _529
REMARK  213  A    between atoms: _531  and  _533
REMARK  214  A    between atoms: _533  and  _534
REMARK  215  A    between atoms: _533  and  _536
REMARK  216  A    between atoms: _536  and  _537
REMARK  217  A    between atoms: _542  and  _544
REMARK  218  A    between atoms: _544  and  _545
REMARK  219  A    between atoms: _544  and  _547
REMARK  220  A    between atoms: _547  and  _548
REMARK  221  A    between atoms: _551  and  _553
REMARK  222  A    between atoms: _553  and  _554
REMARK  223  A    between atoms: _553  and  _556
REMARK  224  A    between atoms: _556  and  _557
REMARK  225  A    between atoms: _560  and  _562
REMARK  226  A    between atoms: _562  and  _563
REMARK  227  A    between atoms: _562  and  _565
REMARK  228  A    between atoms: _565  and  _566
REMARK  229  A    between atoms: _569  and  _571
REMARK  230  A    between atoms: _571  and  _572
REMARK  231  A    between atoms: _575  and  _577
REMARK  232  A    between atoms: _577  and  _578
REMARK  233  A    between atoms: _577  and  _580
REMARK  234  A    between atoms: _580  and  _581
REMARK  235  A    between atoms: _581  and  _582
REMARK  236  A    between atoms: _582  and  _583
REMARK  237  A    between atoms: _583  and  _584
REMARK                            x       y       z     vdW  Elec       q    Type
REMARK                         _______ _______ _______ _____ _____    ______ ____
ROOT
ATOM      1  C   LYS A   1      -3.418 -14.596 -17.860  0.00  0.00    +0.242 C 
ATOM      2  O   LYS A   1      -3.255 -13.750 -17.072  0.00  0.00    -0.273 OA
ATOM      3  N   GLU A   2      -2.416 -15.323 -18.303  0.00  0.00    -0.298 N 
ATOM      4  H   GLU A   2      -2.582 -15.945 -19.119  0.00  0.00    +0.150 HD
ENDROOT
BRANCH   1   5
ATOM      5  CA  LYS A   1      -4.826 -14.881 -18.368  0.00  0.00    +0.167 C 
BRANCH   5   6
ATOM      6  N   LYS A   1      -4.902 -15.019 -19.810  0.00  0.00    -0.234 NA
ATOM      7  H   LYS A   1      -5.037 -15.981 -20.181  0.00  0.00    +0.142 HD
ENDBRANCH   5   6
BRANCH   5   8
ATOM      8  CB  LYS A   1      -5.410 -16.162 -17.706  0.00  0.00    -0.005 C 
ATOM      9  CG  LYS A   1      -5.756 -16.187 -16.190  0.00  0.00    -0.031 C 
BRANCH   9  10
ATOM     10  CD  LYS A   1      -5.894 -17.620 -15.560  0.00  0.00    +0.002 C 
BRANCH  10  11
ATOM     11  CE  LYS A   1      -7.125 -17.859 -14.582  0.00  0.00    -0.081 C 
BRANCH  11  12
ATOM     12  NZ  LYS A   1      -7.981 -19.254 -14.605  0.00  0.00    +0.381 N 
ATOM     13  HZ1 LYS A   1      -8.738 -19.207 -13.893  0.00  0.00    -0.089 HD
ATOM     14  HZ2 LYS A   1      -7.349 -20.051 -14.389  0.00  0.00    -0.089 HD
ATOM     15  HZ3 LYS A   1      -8.399 -19.387 -15.548  0.00  0.00    -0.089 HD
ENDBRANCH  11  12
ENDBRANCH  10  11
ENDBRANCH   9  10
ENDBRANCH   5   8
ENDBRANCH   1   5
BRANCH   3  16
ATOM     16  CA  GLU A   2      -1.079 -15.302 -17.707  0.00  0.00    +0.137 C 
BRANCH  16  17
ATOM     17  C   GLU A   2       0.006 -14.610 -18.508  0.00  0.00    +0.227 C 
ATOM     18  O   GLU A   2      -0.080 -14.554 -19.674  0.00  0.00    -0.286 OA
ENDBRANCH  16  17
BRANCH  16  19
ATOM     19  CB  GLU A   2      -0.646 -16.711 -17.340  0.00  0.00    +0.039 C 
BRANCH  19  20
ATOM     20  CG  GLU A   2      -1.578 -17.412 -16.424  0.00  0.00    +0.116 C 
BRANCH  20  21
ATOM     21  CD  GLU A   2      -1.668 -16.745 -15.098  0.00  0.00    +0.365 C 
ATOM     22  OE2 GLU A   2      -2.490 -17.124 -14.297  0.00  0.00    -0.246 OA
ATOM     23  OE1 GLU A   2      -0.920 -15.832 -14.867  0.00  0.00    -0.246 OA
ENDBRANCH  20  21
ENDBRANCH  19  20
ENDBRANCH  16  19
ENDBRANCH   3  16
TORSDOF 11
REMARK  Name = ../refined-set-2016/3qqa/3qqa_pocket.pdb
REMARK  237 active torsions:
REMARK  status: ('A' for Active; 'I' for Inactive)
REMARK    1  A    between atoms: _1  and  _3
REMARK    2  A    between atoms: _3  and  _4
REMARK    3  A    between atoms: _3  and  _6
REMARK    4  A    between atoms: _6  and  _7
REMARK    5  A    between atoms: _13  and  _15
REMARK    6  A    between atoms: _15  and  _16
REMARK    7  A    between atoms: _15  and  _18
REMARK    8  A    between atoms: _18  and  _19
REMARK    9  A    between atoms: _25  and  _27
REMARK   10  A    between atoms: _27  and  _28
REMARK   11  A    between atoms: _27  and  _30
REMARK   12  A    between atoms: _30  and  _31
REMARK   13  A    between atoms: _34  and  _36
REMARK   14  A    between atoms: _36  and  _37
REMARK   15  A    between atoms: _36  and  _39
REMARK   16  A    between atoms: _39  and  _40
REMARK   17  A    between atoms: _43  and  _45
REMARK   18  A    between atoms: _45  and  _46
REMARK   19  A    between atoms: _45  and  _48
REMARK   20  A    between atoms: _48  and  _49
REMARK   21  A    between atoms: _52  and  _54
REMARK   22  A    between atoms: _54  and  _55
REMARK   23  A    between atoms: _54  and  _57
REMARK   24  A    between atoms: _57  and  _58
REMARK   25  A    between atoms: _61  and  _63
REMARK   26  A    between atoms: _63  and  _64
REMARK   27  A    between atoms: _63  and  _66
REMARK   28  A    between atoms: _68  and  _70
REMARK   29  A    between atoms: _70  and  _71
REMARK   30  A    between atoms: _70  and  _73
REMARK   31  A    between atoms: _73  and  _74
REMARK   32  A    between atoms: _79  and  _81
REMARK   33  A    between atoms: _81  and  _82
REMARK   34  A    between atoms: _81  and  _84
REMARK   35  A    between atoms: _84  and  _85
REMARK   36  A    between atoms: _91  and  _93
REMARK   37  A    between atoms: _93  and  _94
REMARK   38  A    between atoms: _93  and  _96
REMARK   39  A    between atoms: _96  and  _97
REMARK   40  A    between atoms: _103  and  _105
REMARK   41  A    between atoms: _105  and  _106
REMARK   42  A    between atoms: _105  and  _108
REMARK   43  A    between atoms: _108  and  _109
REMARK   44  A    between atoms: _112  and  _114
REMARK   45  A    between atoms: _114  and  _115
REMARK   46  A    between atoms: _114  and  _117
REMARK   47  A    between atoms: _117  and  _118
REMARK   48  A    between atoms: _124  and  _126
REMARK   49  A    between atoms: _126  and  _127
REMARK   50  A    between atoms: _126  and  _129
REMARK   51  A    between atoms: _129  and  _130
REMARK   52  A    between atoms: _135  and  _137
REMARK   53  A    between atoms: _137  and  _138
REMARK   54  A    between atoms: _137  and  _140
REMARK   55  A    between atoms: _140  and  _141
REMARK   56  A    between atoms: _141  and  _142
REMARK   57  A    between atoms: _147  and  _149
REMARK   58  A    between atoms: _149  and  _150
REMARK   59  A    between atoms: _149  and  _152
REMARK   60  A    between atoms: _152  and  _153
REMARK   61  A    between atoms: _153  and  _154
REMARK   62  A    between atoms: _157  and  _159
REMARK   63  A    between atoms: _159  and  _160
REMARK   64  A    between atoms: _163  and  _165
REMARK   65  A    between atoms: _165  and  _166
REMARK   66  A    between atoms: _165  and  _168
REMARK   67  A    between atoms: _171  and  _173
REMARK   68  A    between atoms: _173  and  _174
REMARK   69  A    between atoms: _177  and  _179
REMARK   70  A    between atoms: _179  and  _180
REMARK   71  A    between atoms: _179  and  _182
REMARK   72  A    between atoms: _182  and  _183
REMARK   73  A    between atoms: _189  and  _191
REMARK   74  A    between atoms: _191  and  _192
REMARK   75  A    between atoms: _194  and  _196
REMARK   76  A    between atoms: _196  and  _197
REMARK   77  A    between atoms: _196  and  _199
REMARK   78  A    between atoms: _199  and  _200
REMARK   79  A    between atoms: _200  and  _201
REMARK   80  A    between atoms: _201  and  _202
REMARK   81  A    between atoms: _202  and  _203
REMARK   82  A    between atoms: _207  and  _209
REMARK   83  A    between atoms: _209  and  _210
REMARK   84  A    between atoms: _209  and  _212
REMARK   85  A    between atoms: _212  and  _213
REMARK   86  A    between atoms: _216  and  _218
REMARK   87  A    between atoms: _218  and  _219
REMARK   88  A    between atoms: _218  and  _221
REMARK   89  A    between atoms: _221  and  _222
REMARK   90  A    between atoms: _225  and  _227
REMARK   91  A    between atoms: _227  and  _228
REMARK   92  A    between atoms: _227  and  _230
REMARK   93  A    between atoms: _230  and  _231
REMARK   94  A    between atoms: _236  and  _237
REMARK   95  A    between atoms: _239  and  _241
REMARK   96  A    between atoms: _241  and  _242
REMARK   97  A    between atoms: _241  and  _244
REMARK   98  A    between atoms: _244  and  _245
REMARK   99  A    between atoms: _248  and  _250
REMARK  100  A    between atoms: _250  and  _251
REMARK  101  A    between atoms: _250  and  _253
REMARK  102  A    between atoms: _253  and  _254
REMARK  103  A    between atoms: _264  and  _266
REMARK  104  A    between atoms: _266  and  _267
REMARK  105  A    between atoms: _266  and  _269
REMARK  106  A    between atoms: _269  and  _270
REMARK  107  A    between atoms: _273  and  _275
REMARK  108  A    between atoms: _275  and  _276
REMARK  109  A    between atoms: _275  and  _278
REMARK  110  A    between atoms: _278  and  _279
REMARK  111  A    between atoms: _279  and  _280
REMARK  112  A    between atoms: _283  and  _285
REMARK  113  A    between atoms: _285  and  _286
REMARK  114  A    between atoms: _285  and  _288
REMARK  115  A    between atoms: _288  and  _289
REMARK  116  A    between atoms: _294  and  _296
REMARK  117  A    between atoms: _296  and  _297
REMARK  118  A    between atoms: _296  and  _299
REMARK  119  A    between atoms: _299  and  _300
REMARK  120  A    between atoms: _300  and  _301
REMARK  121  A    between atoms: _306  and  _308
REMARK  122  A    between atoms: _308  and  _309
REMARK  123  A    between atoms: _308  and  _311
REMARK  124  A    between atoms: _311  and  _312
REMARK  125  A    between atoms: _317  and  _319
REMARK  126  A    between atoms: _319  and  _320
REMARK  127  A    between atoms: _319  and  _322
REMARK  128  A    between atoms: _322  and  _323
REMARK  129  A    between atoms: _329  and  _331
REMARK  130  A    between atoms: _331  and  _332
REMARK  131  A    between atoms: _331  and  _334
REMARK  132  A    between atoms: _334  and  _335
REMARK  133  A    between atoms: _337  and  _339
REMARK  134  A    between atoms: _339  and  _340
REMARK  135  A    between atoms: _339  and  _342
REMARK  136  A    between atoms: _342  and  _343
REMARK  137  A    between atoms: _348  and  _349
REMARK  138  A    between atoms: _351  and  _353
REMARK  139  A    between atoms: _353  and  _354
REMARK  140  A    between atoms: _353  and  _356
REMARK  141  A    between atoms: _356  and  _357
REMARK  142  A    between atoms: _362  and  _364
REMARK  143  A    between atoms: _364  and  _365
REMARK  144  A    between atoms: _364  and  _367
REMARK  145  A    between atoms: _367  and  _368
REMARK  146  A    between atoms: _368  and  _369
REMARK  147  A    between atoms: _371  and  _373
REMARK  148  A    between atoms: _373  and  _374
REMARK  149  A    between atoms: _373  and  _376
REMARK  150  A    between atoms: _376  and  _377
REMARK  151  A    between atoms: _377  and  _378
REMARK  152  A    between atoms: _381  and  _383
REMARK  153  A    between atoms: _383  and  _384
REMARK  154  A    between atoms: _383  and  _386
REMARK  155  A    between atoms: _386  and  _387
REMARK  156  A    between atoms: _387  and  _388
REMARK  157  A    between atoms: _388  and  _389
REMARK  158  A    between atoms: _389  and  _390
REMARK  159  A    between atoms: _394  and  _396
REMARK  160  A    between atoms: _396  and  _397
REMARK  161  A    between atoms: _400  and  _402
REMARK  162  A    between atoms: _402  and  _403
REMARK  163  A    between atoms: _402  and  _405
REMARK  164  A    between atoms: _408  and  _410
REMARK  165  A    between atoms: _410  and  _411
REMARK  166  A    between atoms: _410  and  _413
REMARK  167  A    between atoms: _413  and  _414
REMARK  168  A    between atoms: _417  and  _419
REMARK  169  A    between atoms: _419  and  _420
REMARK  170  A    between atoms: _419  and  _422
REMARK  171  A    between atoms: _424  and  _426
REMARK  172  A    between atoms: _426  and  _427
REMARK  173  A    between atoms: _426  and  _429
REMARK  174  A    between atoms: _429  and  _430
REMARK  175  A    between atoms: _433  and  _435
REMARK  176  A    between atoms: _435  and  _436
REMARK  177  A    between atoms: _435  and  _438
REMARK  178  A    between atoms: _439  and  _440
REMARK  179  A    between atoms: _440  and  _441
REMARK  180  A    between atoms: _441  and  _442
REMARK  181  A    between atoms: _446  and  _448
REMARK  182  A    between atoms: _448  and  _449
REMARK  183  A    between atoms: _448  and  _451
REMARK  184  A    between atoms: _451  and  _452
REMARK  185  A    between atoms: _452  and  _453
REMARK  186  A    between atoms: _456  and  _458
REMARK  187  A    between atoms: _458  and  _459
REMARK  188  A    between atoms: _458  and  _461
REMARK  189  A    between atoms: _461  and  _462
REMARK  190  A    between atoms: _467  and  _469
REMARK  191  A    between atoms: _469  and  _470
REMARK  192  A    between atoms: _469  and  _472
REMARK  193  A    between atoms: _472  and  _473
REMARK  194  A    between atoms: _478  and  _480
REMARK  195  A    between atoms: _480  and  _481
REMARK  196  A    between atoms: _480  and  _483
REMARK  197  A    between atoms: _486  and  _488
REMARK  198  A    between atoms: _488  and  _489
REMARK  199  A    between atoms: _488  and  _491
REMARK  200  A    between atoms: _491  and  _492
REMARK  201  A    between atoms: _497  and  _498
REMARK  202  A    between atoms: _500  and  _502
REMARK  203  A    between atoms: _502  and  _503
REMARK  204  A    between atoms: _502  and  _505
REMARK  205  A    between atoms: _505  and  _506
REMARK  206  A    between atoms: _506  and  _507
REMARK  207  A    between atoms: _511  and  _512
REMARK  208  A    between atoms: _517  and  _519
REMARK  209  A    between atoms: _519  and  _520
REMARK  210  A    between atoms: _519  and  _522
REMARK  211  A    between atoms: _522  and  _523
REMARK  212  A    between atoms: _528  and  _529
REMARK  213  A    between atoms: _531  and  _533
REMARK  214  A    between atoms: _533  and  _534
REMARK  215  A    between atoms: _533  and  _536
REMARK  216  A    between atoms: _536  and  _537
REMARK  217  A    between atoms: _542  and  _544
REMARK  218  A    between atoms: _544  and  _545
REMARK  219  A    between atoms: _544  and  _547
REMARK  220  A    between atoms: _547  and  _548
REMARK  221  A    between atoms: _551  and  _553
REMARK  222  A    between atoms: _553  and  _554
REMARK  223  A    between atoms: _553  and  _556
REMARK  224  A    between atoms: _556  and  _557
REMARK  225  A    between atoms: _560  and  _562
REMARK  226  A    between atoms: _562  and  _563
REMARK  227  A    between atoms: _562  and  _565
REMARK  228  A    between atoms: _565  and  _566
REMARK  229  A    between atoms: _569  and  _571
REMARK  230  A    between atoms: _571  and  _572
REMARK  231  A    between atoms: _575  and  _577
REMARK  232  A    between atoms: _577  and  _578
REMARK  233  A    between atoms: _577  and  _580
REMARK  234  A    between atoms: _580  and  _581
REMARK  235  A    between atoms: _581  and  _582
REMARK  236  A    between atoms: _582  and  _583
REMARK  237  A    between atoms: _583  and  _584
REMARK                            x       y       z     vdW  Elec       q    Type
REMARK                         _______ _______ _______ _____ _____    ______ ____
ROOT
ATOM      1  C   HIS A   1      -2.212 -13.057 -12.043  0.00  0.00    +0.239 C 
ATOM      2  O   HIS A   1      -2.363 -12.636 -10.903  0.00  0.00    -0.274 OA
ATOM      3  N   HIS A   2      -1.213 -13.863 -12.375  0.00  0.00    -0.298 N 
ATOM      4  H   HIS A   2      -1.147 -14.198 -13.357  0.00  0.00    +0.150 HD
ENDROOT
BRANCH   1   5
ATOM      5  CA  HIS A   1      -3.181 -12.679 -13.181  0.00  0.00    +0.151 C 
BRANCH   5   6
ATOM      6  N   HIS A   1      -2.466 -12.320 -14.404  0.00  0.00    -0.238 NA
ATOM      7  H   HIS A   1      -2.651 -12.857 -15.275  0.00  0.00    +0.142 HD
ENDBRANCH   5   6
BRANCH   5   8
ATOM      8  CB  HIS A   1      -4.128 -13.849 -13.465  0.00  0.00    +0.074 C 
BRANCH   8   9
ATOM      9  CG  HIS A   1      -4.924 -14.289 -12.278  0.00  0.00    +0.082 A 
ATOM     10  CD2 HIS A   1      -4.902 -15.440 -11.565  0.00  0.00    +0.115 A 
ATOM     11  NE2 HIS A   1      -5.852 -15.327 -10.579  0.00  0.00    -0.221 NA
ATOM     12  CE1 HIS A   1      -6.441 -14.150 -10.686  0.00  0.00    +0.199 A 
ATOM     13  ND1 HIS A   1      -5.898 -13.503 -11.704  0.00  0.00    -0.227 NA
ENDBRANCH   8   9
ENDBRANCH   5   8
ENDBRANCH   1   5
BRANCH   3  14
ATOM     14  CA  HIS A   2      -0.210 -14.296 -11.423  0.00  0.00    +0.143 C 
BRANCH  14  15
ATOM     15  C   HIS A   2       0.448 -13.102 -10.721  0.00  0.00    +0.227 C 
ATOM     16  O   HIS A   2       0.682 -13.120  -9.494  0.00  0.00    -0.286 OA
ENDBRANCH  14  15
BRANCH  14  17
ATOM     17  CB  HIS A   2       0.810 -15.151 -12.171  0.00  0.00    +0.075 C 
BRANCH  17  18
ATOM     18  CG  HIS A   2       1.745 -15.895 -11.288  0.00  0.00    +0.082 A 
ATOM     19  ND1 HIS A   2       1.336 -16.527 -10.137  0.00  0.00    -0.227 NA
ATOM     20  CE1 HIS A   2       2.375 -17.110  -9.567  0.00  0.00    +0.199 A 
ATOM     21  NE2 HIS A   2       3.443 -16.884 -10.312  0.00  0.00    -0.221 NA
ATOM     22  CD2 HIS A   2       3.073 -16.135 -11.401  0.00  0.00    +0.115 A 
ENDBRANCH  17  18
ENDBRANCH  14  17
ENDBRANCH   3  14
TORSDOF 8
REMARK  Name = ../refined-set-2016/3qqa/3qqa_pocket.pdb
REMARK  237 active torsions:
REMARK  status: ('A' for Active; 'I' for Inactive)
REMARK    1  A    between atoms: _1  and  _3
REMARK    2  A    between atoms: _3  and  _4
REMARK    3  A    between atoms: _3  and  _6
REMARK    4  A    between atoms: _6  and  _7
REMARK    5  A    between atoms: _13  and  _15
REMARK    6  A    between atoms: _15  and  _16
REMARK    7  A    between atoms: _15  and  _18
REMARK    8  A    between atoms: _18  and  _19
REMARK    9  A    between atoms: _25  and  _27
REMARK   10  A    between atoms: _27  and  _28
REMARK   11  A    between atoms: _27  and  _30
REMARK   12  A    between atoms: _30  and  _31
REMARK   13  A    between atoms: _34  and  _36
REMARK   14  A    between atoms: _36  and  _37
REMARK   15  A    between atoms: _36  and  _39
REMARK   16  A    between atoms: _39  and  _40
REMARK   17  A    between atoms: _43  and  _45
REMARK   18  A    between atoms: _45  and  _46
REMARK   19  A    between atoms: _45  and  _48
REMARK   20  A    between atoms: _48  and  _49
REMARK   21  A    between atoms: _52  and  _54
REMARK   22  A    between atoms: _54  and  _55
REMARK   23  A    between atoms: _54  and  _57
REMARK   24  A    between atoms: _57  and  _58
REMARK   25  A    between atoms: _61  and  _63
REMARK   26  A    between atoms: _63  and  _64
REMARK   27  A    between atoms: _63  and  _66
REMARK   28  A    between atoms: _68  and  _70
REMARK   29  A    between atoms: _70  and  _71
REMARK   30  A    between atoms: _70  and  _73
REMARK   31  A    between atoms: _73  and  _74
REMARK   32  A    between atoms: _79  and  _81
REMARK   33  A    between atoms: _81  and  _82
REMARK   34  A    between atoms: _81  and  _84
REMARK   35  A    between atoms: _84  and  _85
REMARK   36  A    between atoms: _91  and  _93
REMARK   37  A    between atoms: _93  and  _94
REMARK   38  A    between atoms: _93  and  _96
REMARK   39  A    between atoms: _96  and  _97
REMARK   40  A    between atoms: _103  and  _105
REMARK   41  A    between atoms: _105  and  _106
REMARK   42  A    between atoms: _105  and  _108
REMARK   43  A    between atoms: _108  and  _109
REMARK   44  A    between atoms: _112  and  _114
REMARK   45  A    between atoms: _114  and  _115
REMARK   46  A    between atoms: _114  and  _117
REMARK   47  A    between atoms: _117  and  _118
REMARK   48  A    between atoms: _124  and  _126
REMARK   49  A    between atoms: _126  and  _127
REMARK   50  A    between atoms: _126  and  _129
REMARK   51  A    between atoms: _129  and  _130
REMARK   52  A    between atoms: _135  and  _137
REMARK   53  A    between atoms: _137  and  _138
REMARK   54  A    between atoms: _137  and  _140
REMARK   55  A    between atoms: _140  and  _141
REMARK   56  A    between atoms: _141  and  _142
REMARK   57  A    between atoms: _147  and  _149
REMARK   58  A    between atoms: _149  and  _150
REMARK   59  A    between atoms: _149  and  _152
REMARK   60  A    between atoms: _152  and  _153
REMARK   61  A    between atoms: _153  and  _154
REMARK   62  A    between atoms: _157  and  _159
REMARK   63  A    between atoms: _159  and  _160
REMARK   64  A    between atoms: _163  and  _165
REMARK   65  A    between atoms: _165  and  _166
REMARK   66  A    between atoms: _165  and  _168
REMARK   67  A    between atoms: _171  and  _173
REMARK   68  A    between atoms: _173  and  _174
REMARK   69  A    between atoms: _177  and  _179
REMARK   70  A    between atoms: _179  and  _180
REMARK   71  A    between atoms: _179  and  _182
REMARK   72  A    between atoms: _182  and  _183
REMARK   73  A    between atoms: _189  and  _191
REMARK   74  A    between atoms: _191  and  _192
REMARK   75  A    between atoms: _194  and  _196
REMARK   76  A    between atoms: _196  and  _197
REMARK   77  A    between atoms: _196  and  _199
REMARK   78  A    between atoms: _199  and  _200
REMARK   79  A    between atoms: _200  and  _201
REMARK   80  A    between atoms: _201  and  _202
REMARK   81  A    between atoms: _202  and  _203
REMARK   82  A    between atoms: _207  and  _209
REMARK   83  A    between atoms: _209  and  _210
REMARK   84  A    between atoms: _209  and  _212
REMARK   85  A    between atoms: _212  and  _213
REMARK   86  A    between atoms: _216  and  _218
REMARK   87  A    between atoms: _218  and  _219
REMARK   88  A    between atoms: _218  and  _221
REMARK   89  A    between atoms: _221  and  _222
REMARK   90  A    between atoms: _225  and  _227
REMARK   91  A    between atoms: _227  and  _228
REMARK   92  A    between atoms: _227  and  _230
REMARK   93  A    between atoms: _230  and  _231
REMARK   94  A    between atoms: _236  and  _237
REMARK   95  A    between atoms: _239  and  _241
REMARK   96  A    between atoms: _241  and  _242
REMARK   97  A    between atoms: _241  and  _244
REMARK   98  A    between atoms: _244  and  _245
REMARK   99  A    between atoms: _248  and  _250
REMARK  100  A    between atoms: _250  and  _251
REMARK  101  A    between atoms: _250  and  _253
REMARK  102  A    between atoms: _253  and  _254
REMARK  103  A    between atoms: _264  and  _266
REMARK  104  A    between atoms: _266  and  _267
REMARK  105  A    between atoms: _266  and  _269
REMARK  106  A    between atoms: _269  and  _270
REMARK  107  A    between atoms: _273  and  _275
REMARK  108  A    between atoms: _275  and  _276
REMARK  109  A    between atoms: _275  and  _278
REMARK  110  A    between atoms: _278  and  _279
REMARK  111  A    between atoms: _279  and  _280
REMARK  112  A    between atoms: _283  and  _285
REMARK  113  A    between atoms: _285  and  _286
REMARK  114  A    between atoms: _285  and  _288
REMARK  115  A    between atoms: _288  and  _289
REMARK  116  A    between atoms: _294  and  _296
REMARK  117  A    between atoms: _296  and  _297
REMARK  118  A    between atoms: _296  and  _299
REMARK  119  A    between atoms: _299  and  _300
REMARK  120  A    between atoms: _300  and  _301
REMARK  121  A    between atoms: _306  and  _308
REMARK  122  A    between atoms: _308  and  _309
REMARK  123  A    between atoms: _308  and  _311
REMARK  124  A    between atoms: _311  and  _312
REMARK  125  A    between atoms: _317  and  _319
REMARK  126  A    between atoms: _319  and  _320
REMARK  127  A    between atoms: _319  and  _322
REMARK  128  A    between atoms: _322  and  _323
REMARK  129  A    between atoms: _329  and  _331
REMARK  130  A    between atoms: _331  and  _332
REMARK  131  A    between atoms: _331  and  _334
REMARK  132  A    between atoms: _334  and  _335
REMARK  133  A    between atoms: _337  and  _339
REMARK  134  A    between atoms: _339  and  _340
REMARK  135  A    between atoms: _339  and  _342
REMARK  136  A    between atoms: _342  and  _343
REMARK  137  A    between atoms: _348  and  _349
REMARK  138  A    between atoms: _351  and  _353
REMARK  139  A    between atoms: _353  and  _354
REMARK  140  A    between atoms: _353  and  _356
REMARK  141  A    between atoms: _356  and  _357
REMARK  142  A    between atoms: _362  and  _364
REMARK  143  A    between atoms: _364  and  _365
REMARK  144  A    between atoms: _364  and  _367
REMARK  145  A    between atoms: _367  and  _368
REMARK  146  A    between atoms: _368  and  _369
REMARK  147  A    between atoms: _371  and  _373
REMARK  148  A    between atoms: _373  and  _374
REMARK  149  A    between atoms: _373  and  _376
REMARK  150  A    between atoms: _376  and  _377
REMARK  151  A    between atoms: _377  and  _378
REMARK  152  A    between atoms: _381  and  _383
REMARK  153  A    between atoms: _383  and  _384
REMARK  154  A    between atoms: _383  and  _386
REMARK  155  A    between atoms: _386  and  _387
REMARK  156  A    between atoms: _387  and  _388
REMARK  157  A    between atoms: _388  and  _389
REMARK  158  A    between atoms: _389  and  _390
REMARK  159  A    between atoms: _394  and  _396
REMARK  160  A    between atoms: _396  and  _397
REMARK  161  A    between atoms: _400  and  _402
REMARK  162  A    between atoms: _402  and  _403
REMARK  163  A    between atoms: _402  and  _405
REMARK  164  A    between atoms: _408  and  _410
REMARK  165  A    between atoms: _410  and  _411
REMARK  166  A    between atoms: _410  and  _413
REMARK  167  A    between atoms: _413  and  _414
REMARK  168  A    between atoms: _417  and  _419
REMARK  169  A    between atoms: _419  and  _420
REMARK  170  A    between atoms: _419  and  _422
REMARK  171  A    between atoms: _424  and  _426
REMARK  172  A    between atoms: _426  and  _427
REMARK  173  A    between atoms: _426  and  _429
REMARK  174  A    between atoms: _429  and  _430
REMARK  175  A    between atoms: _433  and  _435
REMARK  176  A    between atoms: _435  and  _436
REMARK  177  A    between atoms: _435  and  _438
REMARK  178  A    between atoms: _439  and  _440
REMARK  179  A    between atoms: _440  and  _441
REMARK  180  A    between atoms: _441  and  _442
REMARK  181  A    between atoms: _446  and  _448
REMARK  182  A    between atoms: _448  and  _449
REMARK  183  A    between atoms: _448  and  _451
REMARK  184  A    between atoms: _451  and  _452
REMARK  185  A    between atoms: _452  and  _453
REMARK  186  A    between atoms: _456  and  _458
REMARK  187  A    between atoms: _458  and  _459
REMARK  188  A    between atoms: _458  and  _461
REMARK  189  A    between atoms: _461  and  _462
REMARK  190  A    between atoms: _467  and  _469
REMARK  191  A    between atoms: _469  and  _470
REMARK  192  A    between atoms: _469  and  _472
REMARK  193  A    between atoms: _472  and  _473
REMARK  194  A    between atoms: _478  and  _480
REMARK  195  A    between atoms: _480  and  _481
REMARK  196  A    between atoms: _480  and  _483
REMARK  197  A    between atoms: _486  and  _488
REMARK  198  A    between atoms: _488  and  _489
REMARK  199  A    between atoms: _488  and  _491
REMARK  200  A    between atoms: _491  and  _492
REMARK  201  A    between atoms: _497  and  _498
REMARK  202  A    between atoms: _500  and  _502
REMARK  203  A    between atoms: _502  and  _503
REMARK  204  A    between atoms: _502  and  _505
REMARK  205  A    between atoms: _505  and  _506
REMARK  206  A    between atoms: _506  and  _507
REMARK  207  A    between atoms: _511  and  _512
REMARK  208  A    between atoms: _517  and  _519
REMARK  209  A    between atoms: _519  and  _520
REMARK  210  A    between atoms: _519  and  _522
REMARK  211  A    between atoms: _522  and  _523
REMARK  212  A    between atoms: _528  and  _529
REMARK  213  A    between atoms: _531  and  _533
REMARK  214  A    between atoms: _533  and  _534
REMARK  215  A    between atoms: _533  and  _536
REMARK  216  A    between atoms: _536  and  _537
REMARK  217  A    between atoms: _542  and  _544
REMARK  218  A    between atoms: _544  and  _545
REMARK  219  A    between atoms: _544  and  _547
REMARK  220  A    between atoms: _547  and  _548
REMARK  221  A    between atoms: _551  and  _553
REMARK  222  A    between atoms: _553  and  _554
REMARK  223  A    between atoms: _553  and  _556
REMARK  224  A    between atoms: _556  and  _557
REMARK  225  A    between atoms: _560  and  _562
REMARK  226  A    between atoms: _562  and  _563
REMARK  227  A    between atoms: _562  and  _565
REMARK  228  A    between atoms: _565  and  _566
REMARK  229  A    between atoms: _569  and  _571
REMARK  230  A    between atoms: _571  and  _572
REMARK  231  A    between atoms: _575  and  _577
REMARK  232  A    between atoms: _577  and  _578
REMARK  233  A    between atoms: _577  and  _580
REMARK  234  A    between atoms: _580  and  _581
REMARK  235  A    between atoms: _581  and  _582
REMARK  236  A    between atoms: _582  and  _583
REMARK  237  A    between atoms: _583  and  _584
REMARK                            x       y       z     vdW  Elec       q    Type
REMARK                         _______ _______ _______ _____ _____    ______ ____
ROOT
ATOM      1  CA  VAL A   1      -2.128 -11.875  -7.241  0.00  0.00    +0.133 C 
ENDROOT
BRANCH   1   2
ATOM      2  CB  VAL A   1      -2.466 -13.359  -7.475  0.00  0.00    +0.023 C 
ATOM      3  CG2 VAL A   1      -2.370 -14.122  -6.158  0.00  0.00    +0.002 C 
ATOM      4  CG1 VAL A   1      -3.885 -13.514  -8.056  0.00  0.00    +0.002 C 
ENDBRANCH   1   2
BRANCH   1   5
ATOM      5  N   VAL A   1      -1.993 -11.163  -8.499  0.00  0.00    -0.239 NA
ATOM      6  H   VAL A   1      -1.943 -11.699  -9.389  0.00  0.00    +0.142 HD
ENDBRANCH   1   5
BRANCH   1   7
ATOM      7  C   VAL A   1      -0.879 -11.769  -6.342  0.00  0.00    +0.224 C 
ATOM      8  O   VAL A   1      -0.991 -11.456  -5.160  0.00  0.00    -0.287 OA
ENDBRANCH   1   7
TORSDOF 3
REMARK  Name = ../refined-set-2016/3qqa/3qqa_pocket.pdb
REMARK  237 active torsions:
REMARK  status: ('A' for Active; 'I' for Inactive)
REMARK    1  A    between atoms: _1  and  _3
REMARK    2  A    between atoms: _3  and  _4
REMARK    3  A    between atoms: _3  and  _6
REMARK    4  A    between atoms: _6  and  _7
REMARK    5  A    between atoms: _13  and  _15
REMARK    6  A    between atoms: _15  and  _16
REMARK    7  A    between atoms: _15  and  _18
REMARK    8  A    between atoms: _18  and  _19
REMARK    9  A    between atoms: _25  and  _27
REMARK   10  A    between atoms: _27  and  _28
REMARK   11  A    between atoms: _27  and  _30
REMARK   12  A    between atoms: _30  and  _31
REMARK   13  A    between atoms: _34  and  _36
REMARK   14  A    between atoms: _36  and  _37
REMARK   15  A    between atoms: _36  and  _39
REMARK   16  A    between atoms: _39  and  _40
REMARK   17  A    between atoms: _43  and  _45
REMARK   18  A    between atoms: _45  and  _46
REMARK   19  A    between atoms: _45  and  _48
REMARK   20  A    between atoms: _48  and  _49
REMARK   21  A    between atoms: _52  and  _54
REMARK   22  A    between atoms: _54  and  _55
REMARK   23  A    between atoms: _54  and  _57
REMARK   24  A    between atoms: _57  and  _58
REMARK   25  A    between atoms: _61  and  _63
REMARK   26  A    between atoms: _63  and  _64
REMARK   27  A    between atoms: _63  and  _66
REMARK   28  A    between atoms: _68  and  _70
REMARK   29  A    between atoms: _70  and  _71
REMARK   30  A    between atoms: _70  and  _73
REMARK   31  A    between atoms: _73  and  _74
REMARK   32  A    between atoms: _79  and  _81
REMARK   33  A    between atoms: _81  and  _82
REMARK   34  A    between atoms: _81  and  _84
REMARK   35  A    between atoms: _84  and  _85
REMARK   36  A    between atoms: _91  and  _93
REMARK   37  A    between atoms: _93  and  _94
REMARK   38  A    between atoms: _93  and  _96
REMARK   39  A    between atoms: _96  and  _97
REMARK   40  A    between atoms: _103  and  _105
REMARK   41  A    between atoms: _105  and  _106
REMARK   42  A    between atoms: _105  and  _108
REMARK   43  A    between atoms: _108  and  _109
REMARK   44  A    between atoms: _112  and  _114
REMARK   45  A    between atoms: _114  and  _115
REMARK   46  A    between atoms: _114  and  _117
REMARK   47  A    between atoms: _117  and  _118
REMARK   48  A    between atoms: _124  and  _126
REMARK   49  A    between atoms: _126  and  _127
REMARK   50  A    between atoms: _126  and  _129
REMARK   51  A    between atoms: _129  and  _130
REMARK   52  A    between atoms: _135  and  _137
REMARK   53  A    between atoms: _137  and  _138
REMARK   54  A    between atoms: _137  and  _140
REMARK   55  A    between atoms: _140  and  _141
REMARK   56  A    between atoms: _141  and  _142
REMARK   57  A    between atoms: _147  and  _149
REMARK   58  A    between atoms: _149  and  _150
REMARK   59  A    between atoms: _149  and  _152
REMARK   60  A    between atoms: _152  and  _153
REMARK   61  A    between atoms: _153  and  _154
REMARK   62  A    between atoms: _157  and  _159
REMARK   63  A    between atoms: _159  and  _160
REMARK   64  A    between atoms: _163  and  _165
REMARK   65  A    between atoms: _165  and  _166
REMARK   66  A    between atoms: _165  and  _168
REMARK   67  A    between atoms: _171  and  _173
REMARK   68  A    between atoms: _173  and  _174
REMARK   69  A    between atoms: _177  and  _179
REMARK   70  A    between atoms: _179  and  _180
REMARK   71  A    between atoms: _179  and  _182
REMARK   72  A    between atoms: _182  and  _183
REMARK   73  A    between atoms: _189  and  _191
REMARK   74  A    between atoms: _191  and  _192
REMARK   75  A    between atoms: _194  and  _196
REMARK   76  A    between atoms: _196  and  _197
REMARK   77  A    between atoms: _196  and  _199
REMARK   78  A    between atoms: _199  and  _200
REMARK   79  A    between atoms: _200  and  _201
REMARK   80  A    between atoms: _201  and  _202
REMARK   81  A    between atoms: _202  and  _203
REMARK   82  A    between atoms: _207  and  _209
REMARK   83  A    between atoms: _209  and  _210
REMARK   84  A    between atoms: _209  and  _212
REMARK   85  A    between atoms: _212  and  _213
REMARK   86  A    between atoms: _216  and  _218
REMARK   87  A    between atoms: _218  and  _219
REMARK   88  A    between atoms: _218  and  _221
REMARK   89  A    between atoms: _221  and  _222
REMARK   90  A    between atoms: _225  and  _227
REMARK   91  A    between atoms: _227  and  _228
REMARK   92  A    between atoms: _227  and  _230
REMARK   93  A    between atoms: _230  and  _231
REMARK   94  A    between atoms: _236  and  _237
REMARK   95  A    between atoms: _239  and  _241
REMARK   96  A    between atoms: _241  and  _242
REMARK   97  A    between atoms: _241  and  _244
REMARK   98  A    between atoms: _244  and  _245
REMARK   99  A    between atoms: _248  and  _250
REMARK  100  A    between atoms: _250  and  _251
REMARK  101  A    between atoms: _250  and  _253
REMARK  102  A    between atoms: _253  and  _254
REMARK  103  A    between atoms: _264  and  _266
REMARK  104  A    between atoms: _266  and  _267
REMARK  105  A    between atoms: _266  and  _269
REMARK  106  A    between atoms: _269  and  _270
REMARK  107  A    between atoms: _273  and  _275
REMARK  108  A    between atoms: _275  and  _276
REMARK  109  A    between atoms: _275  and  _278
REMARK  110  A    between atoms: _278  and  _279
REMARK  111  A    between atoms: _279  and  _280
REMARK  112  A    between atoms: _283  and  _285
REMARK  113  A    between atoms: _285  and  _286
REMARK  114  A    between atoms: _285  and  _288
REMARK  115  A    between atoms: _288  and  _289
REMARK  116  A    between atoms: _294  and  _296
REMARK  117  A    between atoms: _296  and  _297
REMARK  118  A    between atoms: _296  and  _299
REMARK  119  A    between atoms: _299  and  _300
REMARK  120  A    between atoms: _300  and  _301
REMARK  121  A    between atoms: _306  and  _308
REMARK  122  A    between atoms: _308  and  _309
REMARK  123  A    between atoms: _308  and  _311
REMARK  124  A    between atoms: _311  and  _312
REMARK  125  A    between atoms: _317  and  _319
REMARK  126  A    between atoms: _319  and  _320
REMARK  127  A    between atoms: _319  and  _322
REMARK  128  A    between atoms: _322  and  _323
REMARK  129  A    between atoms: _329  and  _331
REMARK  130  A    between atoms: _331  and  _332
REMARK  131  A    between atoms: _331  and  _334
REMARK  132  A    between atoms: _334  and  _335
REMARK  133  A    between atoms: _337  and  _339
REMARK  134  A    between atoms: _339  and  _340
REMARK  135  A    between atoms: _339  and  _342
REMARK  136  A    between atoms: _342  and  _343
REMARK  137  A    between atoms: _348  and  _349
REMARK  138  A    between atoms: _351  and  _353
REMARK  139  A    between atoms: _353  and  _354
REMARK  140  A    between atoms: _353  and  _356
REMARK  141  A    between atoms: _356  and  _357
REMARK  142  A    between atoms: _362  and  _364
REMARK  143  A    between atoms: _364  and  _365
REMARK  144  A    between atoms: _364  and  _367
REMARK  145  A    between atoms: _367  and  _368
REMARK  146  A    between atoms: _368  and  _369
REMARK  147  A    between atoms: _371  and  _373
REMARK  148  A    between atoms: _373  and  _374
REMARK  149  A    between atoms: _373  and  _376
REMARK  150  A    between atoms: _376  and  _377
REMARK  151  A    between atoms: _377  and  _378
REMARK  152  A    between atoms: _381  and  _383
REMARK  153  A    between atoms: _383  and  _384
REMARK  154  A    between atoms: _383  and  _386
REMARK  155  A    between atoms: _386  and  _387
REMARK  156  A    between atoms: _387  and  _388
REMARK  157  A    between atoms: _388  and  _389
REMARK  158  A    between atoms: _389  and  _390
REMARK  159  A    between atoms: _394  and  _396
REMARK  160  A    between atoms: _396  and  _397
REMARK  161  A    between atoms: _400  and  _402
REMARK  162  A    between atoms: _402  and  _403
REMARK  163  A    between atoms: _402  and  _405
REMARK  164  A    between atoms: _408  and  _410
REMARK  165  A    between atoms: _410  and  _411
REMARK  166  A    between atoms: _410  and  _413
REMARK  167  A    between atoms: _413  and  _414
REMARK  168  A    between atoms: _417  and  _419
REMARK  169  A    between atoms: _419  and  _420
REMARK  170  A    between atoms: _419  and  _422
REMARK  171  A    between atoms: _424  and  _426
REMARK  172  A    between atoms: _426  and  _427
REMARK  173  A    between atoms: _426  and  _429
REMARK  174  A    between atoms: _429  and  _430
REMARK  175  A    between atoms: _433  and  _435
REMARK  176  A    between atoms: _435  and  _436
REMARK  177  A    between atoms: _435  and  _438
REMARK  178  A    between atoms: _439  and  _440
REMARK  179  A    between atoms: _440  and  _441
REMARK  180  A    between atoms: _441  and  _442
REMARK  181  A    between atoms: _446  and  _448
REMARK  182  A    between atoms: _448  and  _449
REMARK  183  A    between atoms: _448  and  _451
REMARK  184  A    between atoms: _451  and  _452
REMARK  185  A    between atoms: _452  and  _453
REMARK  186  A    between atoms: _456  and  _458
REMARK  187  A    between atoms: _458  and  _459
REMARK  188  A    between atoms: _458  and  _461
REMARK  189  A    between atoms: _461  and  _462
REMARK  190  A    between atoms: _467  and  _469
REMARK  191  A    between atoms: _469  and  _470
REMARK  192  A    between atoms: _469  and  _472
REMARK  193  A    between atoms: _472  and  _473
REMARK  194  A    between atoms: _478  and  _480
REMARK  195  A    between atoms: _480  and  _481
REMARK  196  A    between atoms: _480  and  _483
REMARK  197  A    between atoms: _486  and  _488
REMARK  198  A    between atoms: _488  and  _489
REMARK  199  A    between atoms: _488  and  _491
REMARK  200  A    between atoms: _491  and  _492
REMARK  201  A    between atoms: _497  and  _498
REMARK  202  A    between atoms: _500  and  _502
REMARK  203  A    between atoms: _502  and  _503
REMARK  204  A    between atoms: _502  and  _505
REMARK  205  A    between atoms: _505  and  _506
REMARK  206  A    between atoms: _506  and  _507
REMARK  207  A    between atoms: _511  and  _512
REMARK  208  A    between atoms: _517  and  _519
REMARK  209  A    between atoms: _519  and  _520
REMARK  210  A    between atoms: _519  and  _522
REMARK  211  A    between atoms: _522  and  _523
REMARK  212  A    between atoms: _528  and  _529
REMARK  213  A    between atoms: _531  and  _533
REMARK  214  A    between atoms: _533  and  _534
REMARK  215  A    between atoms: _533  and  _536
REMARK  216  A    between atoms: _536  and  _537
REMARK  217  A    between atoms: _542  and  _544
REMARK  218  A    between atoms: _544  and  _545
REMARK  219  A    between atoms: _544  and  _547
REMARK  220  A    between atoms: _547  and  _548
REMARK  221  A    between atoms: _551  and  _553
REMARK  222  A    between atoms: _553  and  _554
REMARK  223  A    between atoms: _553  and  _556
REMARK  224  A    between atoms: _556  and  _557
REMARK  225  A    between atoms: _560  and  _562
REMARK  226  A    between atoms: _562  and  _563
REMARK  227  A    between atoms: _562  and  _565
REMARK  228  A    between atoms: _565  and  _566
REMARK  229  A    between atoms: _569  and  _571
REMARK  230  A    between atoms: _571  and  _572
REMARK  231  A    between atoms: _575  and  _577
REMARK  232  A    between atoms: _577  and  _578
REMARK  233  A    between atoms: _577  and  _580
REMARK  234  A    between atoms: _580  and  _581
REMARK  235  A    between atoms: _581  and  _582
REMARK  236  A    between atoms: _582  and  _583
REMARK  237  A    between atoms: _583  and  _584
REMARK                            x       y       z     vdW  Elec       q    Type
REMARK                         _______ _______ _______ _____ _____    ______ ____
ROOT
ATOM      1  CG  TYR A   1       1.784 -20.057  -5.346  0.00  0.00    -0.020 A 
ATOM      2  CD2 TYR A   1       0.613 -20.604  -5.896  0.00  0.00    -0.001 A 
ATOM      3  CE2 TYR A   1       0.469 -20.755  -7.266  0.00  0.00    +0.036 A 
ATOM      4  CZ  TYR A   1       1.500 -20.379  -8.099  0.00  0.00    +0.134 A 
ATOM      5  CE1 TYR A   1       2.673 -19.845  -7.581  0.00  0.00    +0.036 A 
ATOM      6  CD1 TYR A   1       2.807 -19.689  -6.209  0.00  0.00    -0.001 A 
ENDROOT
BRANCH   4   7
ATOM      7  OH  TYR A   1       1.365 -20.527  -9.455  0.00  0.00    -0.506 OA
ATOM      8  HH  TYR A   1       0.478 -20.918  -9.656  0.00  0.00    +0.292 HD
ENDBRANCH   4   7
BRANCH   1   9
ATOM      9  CB  TYR A   1       1.934 -19.914  -3.854  0.00  0.00    +0.051 C 
BRANCH   9  10
ATOM     10  CA  TYR A   1       2.628 -18.639  -3.369  0.00  0.00    +0.137 C 
BRANCH  10  11
ATOM     11  N   TYR A   1       4.090 -18.752  -3.491  0.00  0.00    -0.239 NA
ATOM     12  H   TYR A   1       4.491 -19.607  -3.925  0.00  0.00    +0.142 HD
ENDBRANCH  10  11
BRANCH  10  13
ATOM     13  C   TYR A   1       2.188 -18.383  -1.924  0.00  0.00    +0.224 C 
ATOM     14  O   TYR A   1       1.252 -17.621  -1.684  0.00  0.00    -0.287 OA
ENDBRANCH  10  13
ENDBRANCH   9  10
ENDBRANCH   1   9
TORSDOF 5
REMARK  Name = ../refined-set-2016/3qqa/3qqa_pocket.pdb
REMARK  237 active torsions:
REMARK  status: ('A' for Active; 'I' for Inactive)
REMARK    1  A    between atoms: _1  and  _3
REMARK    2  A    between atoms: _3  and  _4
REMARK    3  A    between atoms: _3  and  _6
REMARK    4  A    between atoms: _6  and  _7
REMARK    5  A    between atoms: _13  and  _15
REMARK    6  A    between atoms: _15  and  _16
REMARK    7  A    between atoms: _15  and  _18
REMARK    8  A    between atoms: _18  and  _19
REMARK    9  A    between atoms: _25  and  _27
REMARK   10  A    between atoms: _27  and  _28
REMARK   11  A    between atoms: _27  and  _30
REMARK   12  A    between atoms: _30  and  _31
REMARK   13  A    between atoms: _34  and  _36
REMARK   14  A    between atoms: _36  and  _37
REMARK   15  A    between atoms: _36  and  _39
REMARK   16  A    between atoms: _39  and  _40
REMARK   17  A    between atoms: _43  and  _45
REMARK   18  A    between atoms: _45  and  _46
REMARK   19  A    between atoms: _45  and  _48
REMARK   20  A    between atoms: _48  and  _49
REMARK   21  A    between atoms: _52  and  _54
REMARK   22  A    between atoms: _54  and  _55
REMARK   23  A    between atoms: _54  and  _57
REMARK   24  A    between atoms: _57  and  _58
REMARK   25  A    between atoms: _61  and  _63
REMARK   26  A    between atoms: _63  and  _64
REMARK   27  A    between atoms: _63  and  _66
REMARK   28  A    between atoms: _68  and  _70
REMARK   29  A    between atoms: _70  and  _71
REMARK   30  A    between atoms: _70  and  _73
REMARK   31  A    between atoms: _73  and  _74
REMARK   32  A    between atoms: _79  and  _81
REMARK   33  A    between atoms: _81  and  _82
REMARK   34  A    between atoms: _81  and  _84
REMARK   35  A    between atoms: _84  and  _85
REMARK   36  A    between atoms: _91  and  _93
REMARK   37  A    between atoms: _93  and  _94
REMARK   38  A    between atoms: _93  and  _96
REMARK   39  A    between atoms: _96  and  _97
REMARK   40  A    between atoms: _103  and  _105
REMARK   41  A    between atoms: _105  and  _106
REMARK   42  A    between atoms: _105  and  _108
REMARK   43  A    between atoms: _108  and  _109
REMARK   44  A    between atoms: _112  and  _114
REMARK   45  A    between atoms: _114  and  _115
REMARK   46  A    between atoms: _114  and  _117
REMARK   47  A    between atoms: _117  and  _118
REMARK   48  A    between atoms: _124  and  _126
REMARK   49  A    between atoms: _126  and  _127
REMARK   50  A    between atoms: _126  and  _129
REMARK   51  A    between atoms: _129  and  _130
REMARK   52  A    between atoms: _135  and  _137
REMARK   53  A    between atoms: _137  and  _138
REMARK   54  A    between atoms: _137  and  _140
REMARK   55  A    between atoms: _140  and  _141
REMARK   56  A    between atoms: _141  and  _142
REMARK   57  A    between atoms: _147  and  _149
REMARK   58  A    between atoms: _149  and  _150
REMARK   59  A    between atoms: _149  and  _152
REMARK   60  A    between atoms: _152  and  _153
REMARK   61  A    between atoms: _153  and  _154
REMARK   62  A    between atoms: _157  and  _159
REMARK   63  A    between atoms: _159  and  _160
REMARK   64  A    between atoms: _163  and  _165
REMARK   65  A    between atoms: _165  and  _166
REMARK   66  A    between atoms: _165  and  _168
REMARK   67  A    between atoms: _171  and  _173
REMARK   68  A    between atoms: _173  and  _174
REMARK   69  A    between atoms: _177  and  _179
REMARK   70  A    between atoms: _179  and  _180
REMARK   71  A    between atoms: _179  and  _182
REMARK   72  A    between atoms: _182  and  _183
REMARK   73  A    between atoms: _189  and  _191
REMARK   74  A    between atoms: _191  and  _192
REMARK   75  A    between atoms: _194  and  _196
REMARK   76  A    between atoms: _196  and  _197
REMARK   77  A    between atoms: _196  and  _199
REMARK   78  A    between atoms: _199  and  _200
REMARK   79  A    between atoms: _200  and  _201
REMARK   80  A    between atoms: _201  and  _202
REMARK   81  A    between atoms: _202  and  _203
REMARK   82  A    between atoms: _207  and  _209
REMARK   83  A    between atoms: _209  and  _210
REMARK   84  A    between atoms: _209  and  _212
REMARK   85  A    between atoms: _212  and  _213
REMARK   86  A    between atoms: _216  and  _218
REMARK   87  A    between atoms: _218  and  _219
REMARK   88  A    between atoms: _218  and  _221
REMARK   89  A    between atoms: _221  and  _222
REMARK   90  A    between atoms: _225  and  _227
REMARK   91  A    between atoms: _227  and  _228
REMARK   92  A    between atoms: _227  and  _230
REMARK   93  A    between atoms: _230  and  _231
REMARK   94  A    between atoms: _236  and  _237
REMARK   95  A    between atoms: _239  and  _241
REMARK   96  A    between atoms: _241  and  _242
REMARK   97  A    between atoms: _241  and  _244
REMARK   98  A    between atoms: _244  and  _245
REMARK   99  A    between atoms: _248  and  _250
REMARK  100  A    between atoms: _250  and  _251
REMARK  101  A    between atoms: _250  and  _253
REMARK  102  A    between atoms: _253  and  _254
REMARK  103  A    between atoms: _264  and  _266
REMARK  104  A    between atoms: _266  and  _267
REMARK  105  A    between atoms: _266  and  _269
REMARK  106  A    between atoms: _269  and  _270
REMARK  107  A    between atoms: _273  and  _275
REMARK  108  A    between atoms: _275  and  _276
REMARK  109  A    between atoms: _275  and  _278
REMARK  110  A    between atoms: _278  and  _279
REMARK  111  A    between atoms: _279  and  _280
REMARK  112  A    between atoms: _283  and  _285
REMARK  113  A    between atoms: _285  and  _286
REMARK  114  A    between atoms: _285  and  _288
REMARK  115  A    between atoms: _288  and  _289
REMARK  116  A    between atoms: _294  and  _296
REMARK  117  A    between atoms: _296  and  _297
REMARK  118  A    between atoms: _296  and  _299
REMARK  119  A    between atoms: _299  and  _300
REMARK  120  A    between atoms: _300  and  _301
REMARK  121  A    between atoms: _306  and  _308
REMARK  122  A    between atoms: _308  and  _309
REMARK  123  A    between atoms: _308  and  _311
REMARK  124  A    between atoms: _311  and  _312
REMARK  125  A    between atoms: _317  and  _319
REMARK  126  A    between atoms: _319  and  _320
REMARK  127  A    between atoms: _319  and  _322
REMARK  128  A    between atoms: _322  and  _323
REMARK  129  A    between atoms: _329  and  _331
REMARK  130  A    between atoms: _331  and  _332
REMARK  131  A    between atoms: _331  and  _334
REMARK  132  A    between atoms: _334  and  _335
REMARK  133  A    between atoms: _337  and  _339
REMARK  134  A    between atoms: _339  and  _340
REMARK  135  A    between atoms: _339  and  _342
REMARK  136  A    between atoms: _342  and  _343
REMARK  137  A    between atoms: _348  and  _349
REMARK  138  A    between atoms: _351  and  _353
REMARK  139  A    between atoms: _353  and  _354
REMARK  140  A    between atoms: _353  and  _356
REMARK  141  A    between atoms: _356  and  _357
REMARK  142  A    between atoms: _362  and  _364
REMARK  143  A    between atoms: _364  and  _365
REMARK  144  A    between atoms: _364  and  _367
REMARK  145  A    between atoms: _367  and  _368
REMARK  146  A    between atoms: _368  and  _369
REMARK  147  A    between atoms: _371  and  _373
REMARK  148  A    between atoms: _373  and  _374
REMARK  149  A    between atoms: _373  and  _376
REMARK  150  A    between atoms: _376  and  _377
REMARK  151  A    between atoms: _377  and  _378
REMARK  152  A    between atoms: _381  and  _383
REMARK  153  A    between atoms: _383  and  _384
REMARK  154  A    between atoms: _383  and  _386
REMARK  155  A    between atoms: _386  and  _387
REMARK  156  A    between atoms: _387  and  _388
REMARK  157  A    between atoms: _388  and  _389
REMARK  158  A    between atoms: _389  and  _390
REMARK  159  A    between atoms: _394  and  _396
REMARK  160  A    between atoms: _396  and  _397
REMARK  161  A    between atoms: _400  and  _402
REMARK  162  A    between atoms: _402  and  _403
REMARK  163  A    between atoms: _402  and  _405
REMARK  164  A    between atoms: _408  and  _410
REMARK  165  A    between atoms: _410  and  _411
REMARK  166  A    between atoms: _410  and  _413
REMARK  167  A    between atoms: _413  and  _414
REMARK  168  A    between atoms: _417  and  _419
REMARK  169  A    between atoms: _419  and  _420
REMARK  170  A    between atoms: _419  and  _422
REMARK  171  A    between atoms: _424  and  _426
REMARK  172  A    between atoms: _426  and  _427
REMARK  173  A    between atoms: _426  and  _429
REMARK  174  A    between atoms: _429  and  _430
REMARK  175  A    between atoms: _433  and  _435
REMARK  176  A    between atoms: _435  and  _436
REMARK  177  A    between atoms: _435  and  _438
REMARK  178  A    between atoms: _439  and  _440
REMARK  179  A    between atoms: _440  and  _441
REMARK  180  A    between atoms: _441  and  _442
REMARK  181  A    between atoms: _446  and  _448
REMARK  182  A    between atoms: _448  and  _449
REMARK  183  A    between atoms: _448  and  _451
REMARK  184  A    between atoms: _451  and  _452
REMARK  185  A    between atoms: _452  and  _453
REMARK  186  A    between atoms: _456  and  _458
REMARK  187  A    between atoms: _458  and  _459
REMARK  188  A    between atoms: _458  and  _461
REMARK  189  A    between atoms: _461  and  _462
REMARK  190  A    between atoms: _467  and  _469
REMARK  191  A    between atoms: _469  and  _470
REMARK  192  A    between atoms: _469  and  _472
REMARK  193  A    between atoms: _472  and  _473
REMARK  194  A    between atoms: _478  and  _480
REMARK  195  A    between atoms: _480  and  _481
REMARK  196  A    between atoms: _480  and  _483
REMARK  197  A    between atoms: _486  and  _488
REMARK  198  A    between atoms: _488  and  _489
REMARK  199  A    between atoms: _488  and  _491
REMARK  200  A    between atoms: _491  and  _492
REMARK  201  A    between atoms: _497  and  _498
REMARK  202  A    between atoms: _500  and  _502
REMARK  203  A    between atoms: _502  and  _503
REMARK  204  A    between atoms: _502  and  _505
REMARK  205  A    between atoms: _505  and  _506
REMARK  206  A    between atoms: _506  and  _507
REMARK  207  A    between atoms: _511  and  _512
REMARK  208  A    between atoms: _517  and  _519
REMARK  209  A    between atoms: _519  and  _520
REMARK  210  A    between atoms: _519  and  _522
REMARK  211  A    between atoms: _522  and  _523
REMARK  212  A    between atoms: _528  and  _529
REMARK  213  A    between atoms: _531  and  _533
REMARK  214  A    between atoms: _533  and  _534
REMARK  215  A    between atoms: _533  and  _536
REMARK  216  A    between atoms: _536  and  _537
REMARK  217  A    between atoms: _542  and  _544
REMARK  218  A    between atoms: _544  and  _545
REMARK  219  A    between atoms: _544  and  _547
REMARK  220  A    between atoms: _547  and  _548
REMARK  221  A    between atoms: _551  and  _553
REMARK  222  A    between atoms: _553  and  _554
REMARK  223  A    between atoms: _553  and  _556
REMARK  224  A    between atoms: _556  and  _557
REMARK  225  A    between atoms: _560  and  _562
REMARK  226  A    between atoms: _562  and  _563
REMARK  227  A    between atoms: _562  and  _565
REMARK  228  A    between atoms: _565  and  _566
REMARK  229  A    between atoms: _569  and  _571
REMARK  230  A    between atoms: _571  and  _572
REMARK  231  A    between atoms: _575  and  _577
REMARK  232  A    between atoms: _577  and  _578
REMARK  233  A    between atoms: _577  and  _580
REMARK  234  A    between atoms: _580  and  _581
REMARK  235  A    between atoms: _581  and  _582
REMARK  236  A    between atoms: _582  and  _583
REMARK  237  A    between atoms: _583  and  _584
REMARK                            x       y       z     vdW  Elec       q    Type
REMARK                         _______ _______ _______ _____ _____    ______ ____
ROOT
ATOM      1  C   PRO A   2      -0.629 -24.755 -15.676  0.00  0.00    +0.241 C 
ATOM      2  O   PRO A   2      -0.975 -24.965 -14.509  0.00  0.00    -0.273 OA
ATOM      3  N   TYR A   3       0.263 -25.492 -16.334  0.00  0.00    -0.298 N 
ATOM      4  H   TYR A   3       0.552 -25.200 -17.289  0.00  0.00    +0.150 HD
ENDROOT
BRANCH   1   7
ATOM      5  C   GLU A   1      -0.006 -23.164 -18.508  0.00  0.00    +0.241 C 
ATOM      6  N   PRO A   2      -1.040 -23.690 -17.871  0.00  0.00    -0.272 N 
ATOM      7  CA  PRO A   2      -1.265 -23.597 -16.431  0.00  0.00    +0.152 C 
ATOM      8  CB  PRO A   2      -2.779 -23.730 -16.328  0.00  0.00    +0.031 C 
ATOM      9  CG  PRO A   2      -3.138 -24.680 -17.437  0.00  0.00    +0.024 C 
ATOM     10  CD  PRO A   2      -2.153 -24.379 -18.555  0.00  0.00    +0.094 C 
ATOM     11  O   GLU A   1       0.080 -23.220 -19.674  0.00  0.00    -0.273 OA
BRANCH   5  12
ATOM     12  CA  GLU A   1       1.079 -22.472 -17.707  0.00  0.00    +0.146 C 
BRANCH  12  13
ATOM     13  N   GLU A   1       2.416 -22.451 -18.303  0.00  0.00    -0.238 NA
ATOM     14  H   GLU A   1       2.582 -21.829 -19.119  0.00  0.00    +0.142 HD
ENDBRANCH  12  13
BRANCH  12  15
ATOM     15  CB  GLU A   1       0.646 -21.063 -17.340  0.00  0.00    +0.038 C 
BRANCH  15  16
ATOM     16  CG  GLU A   1       1.578 -20.362 -16.424  0.00  0.00    +0.116 C 
BRANCH  16  17
ATOM     17  CD  GLU A   1       1.668 -21.029 -15.098  0.00  0.00    +0.365 C 
ATOM     18  OE2 GLU A   1       2.490 -20.650 -14.297  0.00  0.00    -0.246 OA
ATOM     19  OE1 GLU A   1       0.920 -21.942 -14.867  0.00  0.00    -0.246 OA
ENDBRANCH  16  17
ENDBRANCH  15  16
ENDBRANCH  12  15
ENDBRANCH   5  12
ENDBRANCH   1   7
BRANCH   3  20
ATOM     20  CA  TYR A   3       0.850 -26.701 -15.755  0.00  0.00    +0.141 C 
BRANCH  20  21
ATOM     21  C   TYR A   3       1.585 -26.449 -14.431  0.00  0.00    +0.227 C 
ATOM     22  O   TYR A   3       1.325 -27.126 -13.438  0.00  0.00    -0.286 OA
ENDBRANCH  20  21
BRANCH  20  23
ATOM     23  CB  TYR A   3       1.718 -27.413 -16.805  0.00  0.00    +0.054 C 
BRANCH  23  24
ATOM     24  CG  TYR A   3       0.925 -27.617 -18.082  0.00  0.00    -0.020 A 
ATOM     25  CD2 TYR A   3      -0.082 -28.571 -18.145  0.00  0.00    -0.001 A 
ATOM     26  CE2 TYR A   3      -0.843 -28.741 -19.291  0.00  0.00    +0.036 A 
ATOM     27  CZ  TYR A   3      -0.622 -27.934 -20.387  0.00  0.00    +0.134 A 
ATOM     28  CE1 TYR A   3       0.359 -26.964 -20.343  0.00  0.00    +0.036 A 
ATOM     29  CD1 TYR A   3       1.113 -26.800 -19.189  0.00  0.00    -0.001 A 
BRANCH  27  30
ATOM     30  OH  TYR A   3      -1.392 -28.108 -21.520  0.00  0.00    -0.506 OA
ATOM     31  HH  TYR A   3      -1.112 -27.457 -22.211  0.00  0.00    +0.292 HD
ENDBRANCH  27  30
ENDBRANCH  23  24
ENDBRANCH  20  23
ENDBRANCH   3  20
TORSDOF 11
REMARK  Name = ../refined-set-2016/3qqa/3qqa_pocket.pdb
REMARK  237 active torsions:
REMARK  status: ('A' for Active; 'I' for Inactive)
REMARK    1  A    between atoms: _1  and  _3
REMARK    2  A    between atoms: _3  and  _4
REMARK    3  A    between atoms: _3  and  _6
REMARK    4  A    between atoms: _6  and  _7
REMARK    5  A    between atoms: _13  and  _15
REMARK    6  A    between atoms: _15  and  _16
REMARK    7  A    between atoms: _15  and  _18
REMARK    8  A    between atoms: _18  and  _19
REMARK    9  A    between atoms: _25  and  _27
REMARK   10  A    between atoms: _27  and  _28
REMARK   11  A    between atoms: _27  and  _30
REMARK   12  A    between atoms: _30  and  _31
REMARK   13  A    between atoms: _34  and  _36
REMARK   14  A    between atoms: _36  and  _37
REMARK   15  A    between atoms: _36  and  _39
REMARK   16  A    between atoms: _39  and  _40
REMARK   17  A    between atoms: _43  and  _45
REMARK   18  A    between atoms: _45  and  _46
REMARK   19  A    between atoms: _45  and  _48
REMARK   20  A    between atoms: _48  and  _49
REMARK   21  A    between atoms: _52  and  _54
REMARK   22  A    between atoms: _54  and  _55
REMARK   23  A    between atoms: _54  and  _57
REMARK   24  A    between atoms: _57  and  _58
REMARK   25  A    between atoms: _61  and  _63
REMARK   26  A    between atoms: _63  and  _64
REMARK   27  A    between atoms: _63  and  _66
REMARK   28  A    between atoms: _68  and  _70
REMARK   29  A    between atoms: _70  and  _71
REMARK   30  A    between atoms: _70  and  _73
REMARK   31  A    between atoms: _73  and  _74
REMARK   32  A    between atoms: _79  and  _81
REMARK   33  A    between atoms: _81  and  _82
REMARK   34  A    between atoms: _81  and  _84
REMARK   35  A    between atoms: _84  and  _85
REMARK   36  A    between atoms: _91  and  _93
REMARK   37  A    between atoms: _93  and  _94
REMARK   38  A    between atoms: _93  and  _96
REMARK   39  A    between atoms: _96  and  _97
REMARK   40  A    between atoms: _103  and  _105
REMARK   41  A    between atoms: _105  and  _106
REMARK   42  A    between atoms: _105  and  _108
REMARK   43  A    between atoms: _108  and  _109
REMARK   44  A    between atoms: _112  and  _114
REMARK   45  A    between atoms: _114  and  _115
REMARK   46  A    between atoms: _114  and  _117
REMARK   47  A    between atoms: _117  and  _118
REMARK   48  A    between atoms: _124  and  _126
REMARK   49  A    between atoms: _126  and  _127
REMARK   50  A    between atoms: _126  and  _129
REMARK   51  A    between atoms: _129  and  _130
REMARK   52  A    between atoms: _135  and  _137
REMARK   53  A    between atoms: _137  and  _138
REMARK   54  A    between atoms: _137  and  _140
REMARK   55  A    between atoms: _140  and  _141
REMARK   56  A    between atoms: _141  and  _142
REMARK   57  A    between atoms: _147  and  _149
REMARK   58  A    between atoms: _149  and  _150
REMARK   59  A    between atoms: _149  and  _152
REMARK   60  A    between atoms: _152  and  _153
REMARK   61  A    between atoms: _153  and  _154
REMARK   62  A    between atoms: _157  and  _159
REMARK   63  A    between atoms: _159  and  _160
REMARK   64  A    between atoms: _163  and  _165
REMARK   65  A    between atoms: _165  and  _166
REMARK   66  A    between atoms: _165  and  _168
REMARK   67  A    between atoms: _171  and  _173
REMARK   68  A    between atoms: _173  and  _174
REMARK   69  A    between atoms: _177  and  _179
REMARK   70  A    between atoms: _179  and  _180
REMARK   71  A    between atoms: _179  and  _182
REMARK   72  A    between atoms: _182  and  _183
REMARK   73  A    between atoms: _189  and  _191
REMARK   74  A    between atoms: _191  and  _192
REMARK   75  A    between atoms: _194  and  _196
REMARK   76  A    between atoms: _196  and  _197
REMARK   77  A    between atoms: _196  and  _199
REMARK   78  A    between atoms: _199  and  _200
REMARK   79  A    between atoms: _200  and  _201
REMARK   80  A    between atoms: _201  and  _202
REMARK   81  A    between atoms: _202  and  _203
REMARK   82  A    between atoms: _207  and  _209
REMARK   83  A    between atoms: _209  and  _210
REMARK   84  A    between atoms: _209  and  _212
REMARK   85  A    between atoms: _212  and  _213
REMARK   86  A    between atoms: _216  and  _218
REMARK   87  A    between atoms: _218  and  _219
REMARK   88  A    between atoms: _218  and  _221
REMARK   89  A    between atoms: _221  and  _222
REMARK   90  A    between atoms: _225  and  _227
REMARK   91  A    between atoms: _227  and  _228
REMARK   92  A    between atoms: _227  and  _230
REMARK   93  A    between atoms: _230  and  _231
REMARK   94  A    between atoms: _236  and  _237
REMARK   95  A    between atoms: _239  and  _241
REMARK   96  A    between atoms: _241  and  _242
REMARK   97  A    between atoms: _241  and  _244
REMARK   98  A    between atoms: _244  and  _245
REMARK   99  A    between atoms: _248  and  _250
REMARK  100  A    between atoms: _250  and  _251
REMARK  101  A    between atoms: _250  and  _253
REMARK  102  A    between atoms: _253  and  _254
REMARK  103  A    between atoms: _264  and  _266
REMARK  104  A    between atoms: _266  and  _267
REMARK  105  A    between atoms: _266  and  _269
REMARK  106  A    between atoms: _269  and  _270
REMARK  107  A    between atoms: _273  and  _275
REMARK  108  A    between atoms: _275  and  _276
REMARK  109  A    between atoms: _275  and  _278
REMARK  110  A    between atoms: _278  and  _279
REMARK  111  A    between atoms: _279  and  _280
REMARK  112  A    between atoms: _283  and  _285
REMARK  113  A    between atoms: _285  and  _286
REMARK  114  A    between atoms: _285  and  _288
REMARK  115  A    between atoms: _288  and  _289
REMARK  116  A    between atoms: _294  and  _296
REMARK  117  A    between atoms: _296  and  _297
REMARK  118  A    between atoms: _296  and  _299
REMARK  119  A    between atoms: _299  and  _300
REMARK  120  A    between atoms: _300  and  _301
REMARK  121  A    between atoms: _306  and  _308
REMARK  122  A    between atoms: _308  and  _309
REMARK  123  A    between atoms: _308  and  _311
REMARK  124  A    between atoms: _311  and  _312
REMARK  125  A    between atoms: _317  and  _319
REMARK  126  A    between atoms: _319  and  _320
REMARK  127  A    between atoms: _319  and  _322
REMARK  128  A    between atoms: _322  and  _323
REMARK  129  A    between atoms: _329  and  _331
REMARK  130  A    between atoms: _331  and  _332
REMARK  131  A    between atoms: _331  and  _334
REMARK  132  A    between atoms: _334  and  _335
REMARK  133  A    between atoms: _337  and  _339
REMARK  134  A    between atoms: _339  and  _340
REMARK  135  A    between atoms: _339  and  _342
REMARK  136  A    between atoms: _342  and  _343
REMARK  137  A    between atoms: _348  and  _349
REMARK  138  A    between atoms: _351  and  _353
REMARK  139  A    between atoms: _353  and  _354
REMARK  140  A    between atoms: _353  and  _356
REMARK  141  A    between atoms: _356  and  _357
REMARK  142  A    between atoms: _362  and  _364
REMARK  143  A    between atoms: _364  and  _365
REMARK  144  A    between atoms: _364  and  _367
REMARK  145  A    between atoms: _367  and  _368
REMARK  146  A    between atoms: _368  and  _369
REMARK  147  A    between atoms: _371  and  _373
REMARK  148  A    between atoms: _373  and  _374
REMARK  149  A    between atoms: _373  and  _376
REMARK  150  A    between atoms: _376  and  _377
REMARK  151  A    between atoms: _377  and  _378
REMARK  152  A    between atoms: _381  and  _383
REMARK  153  A    between atoms: _383  and  _384
REMARK  154  A    between atoms: _383  and  _386
REMARK  155  A    between atoms: _386  and  _387
REMARK  156  A    between atoms: _387  and  _388
REMARK  157  A    between atoms: _388  and  _389
REMARK  158  A    between atoms: _389  and  _390
REMARK  159  A    between atoms: _394  and  _396
REMARK  160  A    between atoms: _396  and  _397
REMARK  161  A    between atoms: _400  and  _402
REMARK  162  A    between atoms: _402  and  _403
REMARK  163  A    between atoms: _402  and  _405
REMARK  164  A    between atoms: _408  and  _410
REMARK  165  A    between atoms: _410  and  _411
REMARK  166  A    between atoms: _410  and  _413
REMARK  167  A    between atoms: _413  and  _414
REMARK  168  A    between atoms: _417  and  _419
REMARK  169  A    between atoms: _419  and  _420
REMARK  170  A    between atoms: _419  and  _422
REMARK  171  A    between atoms: _424  and  _426
REMARK  172  A    between atoms: _426  and  _427
REMARK  173  A    between atoms: _426  and  _429
REMARK  174  A    between atoms: _429  and  _430
REMARK  175  A    between atoms: _433  and  _435
REMARK  176  A    between atoms: _435  and  _436
REMARK  177  A    between atoms: _435  and  _438
REMARK  178  A    between atoms: _439  and  _440
REMARK  179  A    between atoms: _440  and  _441
REMARK  180  A    between atoms: _441  and  _442
REMARK  181  A    between atoms: _446  and  _448
REMARK  182  A    between atoms: _448  and  _449
REMARK  183  A    between atoms: _448  and  _451
REMARK  184  A    between atoms: _451  and  _452
REMARK  185  A    between atoms: _452  and  _453
REMARK  186  A    between atoms: _456  and  _458
REMARK  187  A    between atoms: _458  and  _459
REMARK  188  A    between atoms: _458  and  _461
REMARK  189  A    between atoms: _461  and  _462
REMARK  190  A    between atoms: _467  and  _469
REMARK  191  A    between atoms: _469  and  _470
REMARK  192  A    between atoms: _469  and  _472
REMARK  193  A    between atoms: _472  and  _473
REMARK  194  A    between atoms: _478  and  _480
REMARK  195  A    between atoms: _480  and  _481
REMARK  196  A    between atoms: _480  and  _483
REMARK  197  A    between atoms: _486  and  _488
REMARK  198  A    between atoms: _488  and  _489
REMARK  199  A    between atoms: _488  and  _491
REMARK  200  A    between atoms: _491  and  _492
REMARK  201  A    between atoms: _497  and  _498
REMARK  202  A    between atoms: _500  and  _502
REMARK  203  A    between atoms: _502  and  _503
REMARK  204  A    between atoms: _502  and  _505
REMARK  205  A    between atoms: _505  and  _506
REMARK  206  A    between atoms: _506  and  _507
REMARK  207  A    between atoms: _511  and  _512
REMARK  208  A    between atoms: _517  and  _519
REMARK  209  A    between atoms: _519  and  _520
REMARK  210  A    between atoms: _519  and  _522
REMARK  211  A    between atoms: _522  and  _523
REMARK  212  A    between atoms: _528  and  _529
REMARK  213  A    between atoms: _531  and  _533
REMARK  214  A    between atoms: _533  and  _534
REMARK  215  A    between atoms: _533  and  _536
REMARK  216  A    between atoms: _536  and  _537
REMARK  217  A    between atoms: _542  and  _544
REMARK  218  A    between atoms: _544  and  _545
REMARK  219  A    between atoms: _544  and  _547
REMARK  220  A    between atoms: _547  and  _548
REMARK  221  A    between atoms: _551  and  _553
REMARK  222  A    between atoms: _553  and  _554
REMARK  223  A    between atoms: _553  and  _556
REMARK  224  A    between atoms: _556  and  _557
REMARK  225  A    between atoms: _560  and  _562
REMARK  226  A    between atoms: _562  and  _563
REMARK  227  A    between atoms: _562  and  _565
REMARK  228  A    between atoms: _565  and  _566
REMARK  229  A    between atoms: _569  and  _571
REMARK  230  A    between atoms: _571  and  _572
REMARK  231  A    between atoms: _575  and  _577
REMARK  232  A    between atoms: _577  and  _578
REMARK  233  A    between atoms: _577  and  _580
REMARK  234  A    between atoms: _580  and  _581
REMARK  235  A    between atoms: _581  and  _582
REMARK  236  A    between atoms: _582  and  _583
REMARK  237  A    between atoms: _583  and  _584
REMARK                            x       y       z     vdW  Elec       q    Type
REMARK                         _______ _______ _______ _____ _____    ______ ____
ROOT
ATOM      1  C   HIS A   1      -0.448 -24.672 -10.721  0.00  0.00    +0.239 C 
ATOM      2  O   HIS A   1      -0.682 -24.654  -9.494  0.00  0.00    -0.274 OA
ATOM      3  N   LEU A   2      -0.749 -25.703 -11.510  0.00  0.00    -0.298 N 
ATOM      4  H   LEU A   2      -0.527 -25.654 -12.525  0.00  0.00    +0.150 HD
ENDROOT
BRANCH   1   5
ATOM      5  CA  HIS A   1       0.210 -23.478 -11.423  0.00  0.00    +0.151 C 
BRANCH   5   6
ATOM      6  N   HIS A   1       1.213 -23.911 -12.375  0.00  0.00    -0.238 NA
ATOM      7  H   HIS A   1       1.147 -23.576 -13.357  0.00  0.00    +0.142 HD
ENDBRANCH   5   6
BRANCH   5   8
ATOM      8  CB  HIS A   1      -0.810 -22.623 -12.171  0.00  0.00    +0.074 C 
BRANCH   8   9
ATOM      9  CG  HIS A   1      -1.745 -21.879 -11.288  0.00  0.00    +0.082 A 
ATOM     10  ND1 HIS A   1      -1.336 -21.247 -10.137  0.00  0.00    -0.227 NA
ATOM     11  CE1 HIS A   1      -2.375 -20.664  -9.567  0.00  0.00    +0.199 A 
ATOM     12  NE2 HIS A   1      -3.443 -20.890 -10.312  0.00  0.00    -0.221 NA
ATOM     13  CD2 HIS A   1      -3.073 -21.639 -11.401  0.00  0.00    +0.115 A 
ENDBRANCH   8   9
ENDBRANCH   5   8
ENDBRANCH   1   5
BRANCH   3  14
ATOM     14  CA  LEU A   2      -1.385 -26.899 -10.971  0.00  0.00    +0.137 C 
BRANCH  14  15
ATOM     15  C   LEU A   2      -0.386 -27.793 -10.212  0.00  0.00    +0.227 C 
ATOM     16  O   LEU A   2      -0.747 -28.374  -9.191  0.00  0.00    -0.286 OA
ENDBRANCH  14  15
BRANCH  14  17
ATOM     17  CB  LEU A   2      -2.096 -27.681 -12.070  0.00  0.00    +0.028 C 
BRANCH  17  18
ATOM     18  CG  LEU A   2      -3.229 -26.941 -12.805  0.00  0.00    +0.002 C 
ATOM     19  CD2 LEU A   2      -4.398 -26.604 -11.892  0.00  0.00    +0.000 C 
ATOM     20  CD1 LEU A   2      -3.718 -27.738 -14.013  0.00  0.00    +0.000 C 
ENDBRANCH  17  18
ENDBRANCH  14  17
ENDBRANCH   3  14
TORSDOF 8
REMARK  Name = ../refined-set-2016/3qqa/3qqa_pocket.pdb
REMARK  237 active torsions:
REMARK  status: ('A' for Active; 'I' for Inactive)
REMARK    1  A    between atoms: _1  and  _3
REMARK    2  A    between atoms: _3  and  _4
REMARK    3  A    between atoms: _3  and  _6
REMARK    4  A    between atoms: _6  and  _7
REMARK    5  A    between atoms: _13  and  _15
REMARK    6  A    between atoms: _15  and  _16
REMARK    7  A    between atoms: _15  and  _18
REMARK    8  A    between atoms: _18  and  _19
REMARK    9  A    between atoms: _25  and  _27
REMARK   10  A    between atoms: _27  and  _28
REMARK   11  A    between atoms: _27  and  _30
REMARK   12  A    between atoms: _30  and  _31
REMARK   13  A    between atoms: _34  and  _36
REMARK   14  A    between atoms: _36  and  _37
REMARK   15  A    between atoms: _36  and  _39
REMARK   16  A    between atoms: _39  and  _40
REMARK   17  A    between atoms: _43  and  _45
REMARK   18  A    between atoms: _45  and  _46
REMARK   19  A    between atoms: _45  and  _48
REMARK   20  A    between atoms: _48  and  _49
REMARK   21  A    between atoms: _52  and  _54
REMARK   22  A    between atoms: _54  and  _55
REMARK   23  A    between atoms: _54  and  _57
REMARK   24  A    between atoms: _57  and  _58
REMARK   25  A    between atoms: _61  and  _63
REMARK   26  A    between atoms: _63  and  _64
REMARK   27  A    between atoms: _63  and  _66
REMARK   28  A    between atoms: _68  and  _70
REMARK   29  A    between atoms: _70  and  _71
REMARK   30  A    between atoms: _70  and  _73
REMARK   31  A    between atoms: _73  and  _74
REMARK   32  A    between atoms: _79  and  _81
REMARK   33  A    between atoms: _81  and  _82
REMARK   34  A    between atoms: _81  and  _84
REMARK   35  A    between atoms: _84  and  _85
REMARK   36  A    between atoms: _91  and  _93
REMARK   37  A    between atoms: _93  and  _94
REMARK   38  A    between atoms: _93  and  _96
REMARK   39  A    between atoms: _96  and  _97
REMARK   40  A    between atoms: _103  and  _105
REMARK   41  A    between atoms: _105  and  _106
REMARK   42  A    between atoms: _105  and  _108
REMARK   43  A    between atoms: _108  and  _109
REMARK   44  A    between atoms: _112  and  _114
REMARK   45  A    between atoms: _114  and  _115
REMARK   46  A    between atoms: _114  and  _117
REMARK   47  A    between atoms: _117  and  _118
REMARK   48  A    between atoms: _124  and  _126
REMARK   49  A    between atoms: _126  and  _127
REMARK   50  A    between atoms: _126  and  _129
REMARK   51  A    between atoms: _129  and  _130
REMARK   52  A    between atoms: _135  and  _137
REMARK   53  A    between atoms: _137  and  _138
REMARK   54  A    between atoms: _137  and  _140
REMARK   55  A    between atoms: _140  and  _141
REMARK   56  A    between atoms: _141  and  _142
REMARK   57  A    between atoms: _147  and  _149
REMARK   58  A    between atoms: _149  and  _150
REMARK   59  A    between atoms: _149  and  _152
REMARK   60  A    between atoms: _152  and  _153
REMARK   61  A    between atoms: _153  and  _154
REMARK   62  A    between atoms: _157  and  _159
REMARK   63  A    between atoms: _159  and  _160
REMARK   64  A    between atoms: _163  and  _165
REMARK   65  A    between atoms: _165  and  _166
REMARK   66  A    between atoms: _165  and  _168
REMARK   67  A    between atoms: _171  and  _173
REMARK   68  A    between atoms: _173  and  _174
REMARK   69  A    between atoms: _177  and  _179
REMARK   70  A    between atoms: _179  and  _180
REMARK   71  A    between atoms: _179  and  _182
REMARK   72  A    between atoms: _182  and  _183
REMARK   73  A    between atoms: _189  and  _191
REMARK   74  A    between atoms: _191  and  _192
REMARK   75  A    between atoms: _194  and  _196
REMARK   76  A    between atoms: _196  and  _197
REMARK   77  A    between atoms: _196  and  _199
REMARK   78  A    between atoms: _199  and  _200
REMARK   79  A    between atoms: _200  and  _201
REMARK   80  A    between atoms: _201  and  _202
REMARK   81  A    between atoms: _202  and  _203
REMARK   82  A    between atoms: _207  and  _209
REMARK   83  A    between atoms: _209  and  _210
REMARK   84  A    between atoms: _209  and  _212
REMARK   85  A    between atoms: _212  and  _213
REMARK   86  A    between atoms: _216  and  _218
REMARK   87  A    between atoms: _218  and  _219
REMARK   88  A    between atoms: _218  and  _221
REMARK   89  A    between atoms: _221  and  _222
REMARK   90  A    between atoms: _225  and  _227
REMARK   91  A    between atoms: _227  and  _228
REMARK   92  A    between atoms: _227  and  _230
REMARK   93  A    between atoms: _230  and  _231
REMARK   94  A    between atoms: _236  and  _237
REMARK   95  A    between atoms: _239  and  _241
REMARK   96  A    between atoms: _241  and  _242
REMARK   97  A    between atoms: _241  and  _244
REMARK   98  A    between atoms: _244  and  _245
REMARK   99  A    between atoms: _248  and  _250
REMARK  100  A    between atoms: _250  and  _251
REMARK  101  A    between atoms: _250  and  _253
REMARK  102  A    between atoms: _253  and  _254
REMARK  103  A    between atoms: _264  and  _266
REMARK  104  A    between atoms: _266  and  _267
REMARK  105  A    between atoms: _266  and  _269
REMARK  106  A    between atoms: _269  and  _270
REMARK  107  A    between atoms: _273  and  _275
REMARK  108  A    between atoms: _275  and  _276
REMARK  109  A    between atoms: _275  and  _278
REMARK  110  A    between atoms: _278  and  _279
REMARK  111  A    between atoms: _279  and  _280
REMARK  112  A    between atoms: _283  and  _285
REMARK  113  A    between atoms: _285  and  _286
REMARK  114  A    between atoms: _285  and  _288
REMARK  115  A    between atoms: _288  and  _289
REMARK  116  A    between atoms: _294  and  _296
REMARK  117  A    between atoms: _296  and  _297
REMARK  118  A    between atoms: _296  and  _299
REMARK  119  A    between atoms: _299  and  _300
REMARK  120  A    between atoms: _300  and  _301
REMARK  121  A    between atoms: _306  and  _308
REMARK  122  A    between atoms: _308  and  _309
REMARK  123  A    between atoms: _308  and  _311
REMARK  124  A    between atoms: _311  and  _312
REMARK  125  A    between atoms: _317  and  _319
REMARK  126  A    between atoms: _319  and  _320
REMARK  127  A    between atoms: _319  and  _322
REMARK  128  A    between atoms: _322  and  _323
REMARK  129  A    between atoms: _329  and  _331
REMARK  130  A    between atoms: _331  and  _332
REMARK  131  A    between atoms: _331  and  _334
REMARK  132  A    between atoms: _334  and  _335
REMARK  133  A    between atoms: _337  and  _339
REMARK  134  A    between atoms: _339  and  _340
REMARK  135  A    between atoms: _339  and  _342
REMARK  136  A    between atoms: _342  and  _343
REMARK  137  A    between atoms: _348  and  _349
REMARK  138  A    between atoms: _351  and  _353
REMARK  139  A    between atoms: _353  and  _354
REMARK  140  A    between atoms: _353  and  _356
REMARK  141  A    between atoms: _356  and  _357
REMARK  142  A    between atoms: _362  and  _364
REMARK  143  A    between atoms: _364  and  _365
REMARK  144  A    between atoms: _364  and  _367
REMARK  145  A    between atoms: _367  and  _368
REMARK  146  A    between atoms: _368  and  _369
REMARK  147  A    between atoms: _371  and  _373
REMARK  148  A    between atoms: _373  and  _374
REMARK  149  A    between atoms: _373  and  _376
REMARK  150  A    between atoms: _376  and  _377
REMARK  151  A    between atoms: _377  and  _378
REMARK  152  A    between atoms: _381  and  _383
REMARK  153  A    between atoms: _383  and  _384
REMARK  154  A    between atoms: _383  and  _386
REMARK  155  A    between atoms: _386  and  _387
REMARK  156  A    between atoms: _387  and  _388
REMARK  157  A    between atoms: _388  and  _389
REMARK  158  A    between atoms: _389  and  _390
REMARK  159  A    between atoms: _394  and  _396
REMARK  160  A    between atoms: _396  and  _397
REMARK  161  A    between atoms: _400  and  _402
REMARK  162  A    between atoms: _402  and  _403
REMARK  163  A    between atoms: _402  and  _405
REMARK  164  A    between atoms: _408  and  _410
REMARK  165  A    between atoms: _410  and  _411
REMARK  166  A    between atoms: _410  and  _413
REMARK  167  A    between atoms: _413  and  _414
REMARK  168  A    between atoms: _417  and  _419
REMARK  169  A    between atoms: _419  and  _420
REMARK  170  A    between atoms: _419  and  _422
REMARK  171  A    between atoms: _424  and  _426
REMARK  172  A    between atoms: _426  and  _427
REMARK  173  A    between atoms: _426  and  _429
REMARK  174  A    between atoms: _429  and  _430
REMARK  175  A    between atoms: _433  and  _435
REMARK  176  A    between atoms: _435  and  _436
REMARK  177  A    between atoms: _435  and  _438
REMARK  178  A    between atoms: _439  and  _440
REMARK  179  A    between atoms: _440  and  _441
REMARK  180  A    between atoms: _441  and  _442
REMARK  181  A    between atoms: _446  and  _448
REMARK  182  A    between atoms: _448  and  _449
REMARK  183  A    between atoms: _448  and  _451
REMARK  184  A    between atoms: _451  and  _452
REMARK  185  A    between atoms: _452  and  _453
REMARK  186  A    between atoms: _456  and  _458
REMARK  187  A    between atoms: _458  and  _459
REMARK  188  A    between atoms: _458  and  _461
REMARK  189  A    between atoms: _461  and  _462
REMARK  190  A    between atoms: _467  and  _469
REMARK  191  A    between atoms: _469  and  _470
REMARK  192  A    between atoms: _469  and  _472
REMARK  193  A    between atoms: _472  and  _473
REMARK  194  A    between atoms: _478  and  _480
REMARK  195  A    between atoms: _480  and  _481
REMARK  196  A    between atoms: _480  and  _483
REMARK  197  A    between atoms: _486  and  _488
REMARK  198  A    between atoms: _488  and  _489
REMARK  199  A    between atoms: _488  and  _491
REMARK  200  A    between atoms: _491  and  _492
REMARK  201  A    between atoms: _497  and  _498
REMARK  202  A    between atoms: _500  and  _502
REMARK  203  A    between atoms: _502  and  _503
REMARK  204  A    between atoms: _502  and  _505
REMARK  205  A    between atoms: _505  and  _506
REMARK  206  A    between atoms: _506  and  _507
REMARK  207  A    between atoms: _511  and  _512
REMARK  208  A    between atoms: _517  and  _519
REMARK  209  A    between atoms: _519  and  _520
REMARK  210  A    between atoms: _519  and  _522
REMARK  211  A    between atoms: _522  and  _523
REMARK  212  A    between atoms: _528  and  _529
REMARK  213  A    between atoms: _531  and  _533
REMARK  214  A    between atoms: _533  and  _534
REMARK  215  A    between atoms: _533  and  _536
REMARK  216  A    between atoms: _536  and  _537
REMARK  217  A    between atoms: _542  and  _544
REMARK  218  A    between atoms: _544  and  _545
REMARK  219  A    between atoms: _544  and  _547
REMARK  220  A    between atoms: _547  and  _548
REMARK  221  A    between atoms: _551  and  _553
REMARK  222  A    between atoms: _553  and  _554
REMARK  223  A    between atoms: _553  and  _556
REMARK  224  A    between atoms: _556  and  _557
REMARK  225  A    between atoms: _560  and  _562
REMARK  226  A    between atoms: _562  and  _563
REMARK  227  A    between atoms: _562  and  _565
REMARK  228  A    between atoms: _565  and  _566
REMARK  229  A    between atoms: _569  and  _571
REMARK  230  A    between atoms: _571  and  _572
REMARK  231  A    between atoms: _575  and  _577
REMARK  232  A    between atoms: _577  and  _578
REMARK  233  A    between atoms: _577  and  _580
REMARK  234  A    between atoms: _580  and  _581
REMARK  235  A    between atoms: _581  and  _582
REMARK  236  A    between atoms: _582  and  _583
REMARK  237  A    between atoms: _583  and  _584
REMARK                            x       y       z     vdW  Elec       q    Type
REMARK                         _______ _______ _______ _____ _____    ______ ____
ROOT
ATOM      1  C   LEU A   1      -2.065 -26.910  -5.523  0.00  0.00    +0.238 C 
ATOM      2  O   LEU A   1      -2.519 -26.980  -4.390  0.00  0.00    -0.274 OA
ATOM      3  N   ILE A   2      -2.075 -27.938  -6.371  0.00  0.00    -0.298 N 
ATOM      4  H   ILE A   2      -1.642 -27.827  -7.310  0.00  0.00    +0.150 HD
ENDROOT
BRANCH   1   5
ATOM      5  CA  LEU A   1      -1.495 -25.589  -6.035  0.00  0.00    +0.145 C 
BRANCH   5   6
ATOM      6  N   LEU A   1      -0.302 -25.712  -6.880  0.00  0.00    -0.238 NA
ATOM      7  H   LEU A   1      -0.380 -25.569  -7.907  0.00  0.00    +0.142 HD
ENDBRANCH   5   6
BRANCH   5   8
ATOM      8  CB  LEU A   1      -2.606 -24.835  -6.769  0.00  0.00    +0.026 C 
BRANCH   8   9
ATOM      9  CG  LEU A   1      -2.488 -23.317  -6.826  0.00  0.00    +0.002 C 
ATOM     10  CD2 LEU A   1      -2.540 -22.743  -5.405  0.00  0.00    +0.000 C 
ATOM     11  CD1 LEU A   1      -3.602 -22.764  -7.712  0.00  0.00    +0.000 C 
ENDBRANCH   8   9
ENDBRANCH   5   8
ENDBRANCH   1   5
BRANCH   3  12
ATOM     12  CA  ILE A   2      -2.678 -29.211  -6.011  0.00  0.00    +0.137 C 
BRANCH  12  13
ATOM     13  C   ILE A   2      -1.735 -30.367  -6.282  0.00  0.00    +0.227 C 
ATOM     14  O   ILE A   2      -2.144 -31.517  -6.279  0.00  0.00    -0.286 OA
ENDBRANCH  12  13
BRANCH  12  15
ATOM     15  CB  ILE A   2      -3.988 -29.474  -6.770  0.00  0.00    +0.026 C 
ATOM     16  CG2 ILE A   2      -5.000 -28.366  -6.508  0.00  0.00    +0.002 C 
BRANCH  15  17
ATOM     17  CG1 ILE A   2      -3.714 -29.631  -8.262  0.00  0.00    +0.002 C 
ATOM     18  CD1 ILE A   2      -4.968 -29.862  -9.077  0.00  0.00    +0.000 C 
ENDBRANCH  15  17
ENDBRANCH  12  15
ENDBRANCH   3  12
TORSDOF 8
REMARK  Name = ../refined-set-2016/3qqa/3qqa_pocket.pdb
REMARK  237 active torsions:
REMARK  status: ('A' for Active; 'I' for Inactive)
REMARK    1  A    between atoms: _1  and  _3
REMARK    2  A    between atoms: _3  and  _4
REMARK    3  A    between atoms: _3  and  _6
REMARK    4  A    between atoms: _6  and  _7
REMARK    5  A    between atoms: _13  and  _15
REMARK    6  A    between atoms: _15  and  _16
REMARK    7  A    between atoms: _15  and  _18
REMARK    8  A    between atoms: _18  and  _19
REMARK    9  A    between atoms: _25  and  _27
REMARK   10  A    between atoms: _27  and  _28
REMARK   11  A    between atoms: _27  and  _30
REMARK   12  A    between atoms: _30  and  _31
REMARK   13  A    between atoms: _34  and  _36
REMARK   14  A    between atoms: _36  and  _37
REMARK   15  A    between atoms: _36  and  _39
REMARK   16  A    between atoms: _39  and  _40
REMARK   17  A    between atoms: _43  and  _45
REMARK   18  A    between atoms: _45  and  _46
REMARK   19  A    between atoms: _45  and  _48
REMARK   20  A    between atoms: _48  and  _49
REMARK   21  A    between atoms: _52  and  _54
REMARK   22  A    between atoms: _54  and  _55
REMARK   23  A    between atoms: _54  and  _57
REMARK   24  A    between atoms: _57  and  _58
REMARK   25  A    between atoms: _61  and  _63
REMARK   26  A    between atoms: _63  and  _64
REMARK   27  A    between atoms: _63  and  _66
REMARK   28  A    between atoms: _68  and  _70
REMARK   29  A    between atoms: _70  and  _71
REMARK   30  A    between atoms: _70  and  _73
REMARK   31  A    between atoms: _73  and  _74
REMARK   32  A    between atoms: _79  and  _81
REMARK   33  A    between atoms: _81  and  _82
REMARK   34  A    between atoms: _81  and  _84
REMARK   35  A    between atoms: _84  and  _85
REMARK   36  A    between atoms: _91  and  _93
REMARK   37  A    between atoms: _93  and  _94
REMARK   38  A    between atoms: _93  and  _96
REMARK   39  A    between atoms: _96  and  _97
REMARK   40  A    between atoms: _103  and  _105
REMARK   41  A    between atoms: _105  and  _106
REMARK   42  A    between atoms: _105  and  _108
REMARK   43  A    between atoms: _108  and  _109
REMARK   44  A    between atoms: _112  and  _114
REMARK   45  A    between atoms: _114  and  _115
REMARK   46  A    between atoms: _114  and  _117
REMARK   47  A    between atoms: _117  and  _118
REMARK   48  A    between atoms: _124  and  _126
REMARK   49  A    between atoms: _126  and  _127
REMARK   50  A    between atoms: _126  and  _129
REMARK   51  A    between atoms: _129  and  _130
REMARK   52  A    between atoms: _135  and  _137
REMARK   53  A    between atoms: _137  and  _138
REMARK   54  A    between atoms: _137  and  _140
REMARK   55  A    between atoms: _140  and  _141
REMARK   56  A    between atoms: _141  and  _142
REMARK   57  A    between atoms: _147  and  _149
REMARK   58  A    between atoms: _149  and  _150
REMARK   59  A    between atoms: _149  and  _152
REMARK   60  A    between atoms: _152  and  _153
REMARK   61  A    between atoms: _153  and  _154
REMARK   62  A    between atoms: _157  and  _159
REMARK   63  A    between atoms: _159  and  _160
REMARK   64  A    between atoms: _163  and  _165
REMARK   65  A    between atoms: _165  and  _166
REMARK   66  A    between atoms: _165  and  _168
REMARK   67  A    between atoms: _171  and  _173
REMARK   68  A    between atoms: _173  and  _174
REMARK   69  A    between atoms: _177  and  _179
REMARK   70  A    between atoms: _179  and  _180
REMARK   71  A    between atoms: _179  and  _182
REMARK   72  A    between atoms: _182  and  _183
REMARK   73  A    between atoms: _189  and  _191
REMARK   74  A    between atoms: _191  and  _192
REMARK   75  A    between atoms: _194  and  _196
REMARK   76  A    between atoms: _196  and  _197
REMARK   77  A    between atoms: _196  and  _199
REMARK   78  A    between atoms: _199  and  _200
REMARK   79  A    between atoms: _200  and  _201
REMARK   80  A    between atoms: _201  and  _202
REMARK   81  A    between atoms: _202  and  _203
REMARK   82  A    between atoms: _207  and  _209
REMARK   83  A    between atoms: _209  and  _210
REMARK   84  A    between atoms: _209  and  _212
REMARK   85  A    between atoms: _212  and  _213
REMARK   86  A    between atoms: _216  and  _218
REMARK   87  A    between atoms: _218  and  _219
REMARK   88  A    between atoms: _218  and  _221
REMARK   89  A    between atoms: _221  and  _222
REMARK   90  A    between atoms: _225  and  _227
REMARK   91  A    between atoms: _227  and  _228
REMARK   92  A    between atoms: _227  and  _230
REMARK   93  A    between atoms: _230  and  _231
REMARK   94  A    between atoms: _236  and  _237
REMARK   95  A    between atoms: _239  and  _241
REMARK   96  A    between atoms: _241  and  _242
REMARK   97  A    between atoms: _241  and  _244
REMARK   98  A    between atoms: _244  and  _245
REMARK   99  A    between atoms: _248  and  _250
REMARK  100  A    between atoms: _250  and  _251
REMARK  101  A    between atoms: _250  and  _253
REMARK  102  A    between atoms: _253  and  _254
REMARK  103  A    between atoms: _264  and  _266
REMARK  104  A    between atoms: _266  and  _267
REMARK  105  A    between atoms: _266  and  _269
REMARK  106  A    between atoms: _269  and  _270
REMARK  107  A    between atoms: _273  and  _275
REMARK  108  A    between atoms: _275  and  _276
REMARK  109  A    between atoms: _275  and  _278
REMARK  110  A    between atoms: _278  and  _279
REMARK  111  A    between atoms: _279  and  _280
REMARK  112  A    between atoms: _283  and  _285
REMARK  113  A    between atoms: _285  and  _286
REMARK  114  A    between atoms: _285  and  _288
REMARK  115  A    between atoms: _288  and  _289
REMARK  116  A    between atoms: _294  and  _296
REMARK  117  A    between atoms: _296  and  _297
REMARK  118  A    between atoms: _296  and  _299
REMARK  119  A    between atoms: _299  and  _300
REMARK  120  A    between atoms: _300  and  _301
REMARK  121  A    between atoms: _306  and  _308
REMARK  122  A    between atoms: _308  and  _309
REMARK  123  A    between atoms: _308  and  _311
REMARK  124  A    between atoms: _311  and  _312
REMARK  125  A    between atoms: _317  and  _319
REMARK  126  A    between atoms: _319  and  _320
REMARK  127  A    between atoms: _319  and  _322
REMARK  128  A    between atoms: _322  and  _323
REMARK  129  A    between atoms: _329  and  _331
REMARK  130  A    between atoms: _331  and  _332
REMARK  131  A    between atoms: _331  and  _334
REMARK  132  A    between atoms: _334  and  _335
REMARK  133  A    between atoms: _337  and  _339
REMARK  134  A    between atoms: _339  and  _340
REMARK  135  A    between atoms: _339  and  _342
REMARK  136  A    between atoms: _342  and  _343
REMARK  137  A    between atoms: _348  and  _349
REMARK  138  A    between atoms: _351  and  _353
REMARK  139  A    between atoms: _353  and  _354
REMARK  140  A    between atoms: _353  and  _356
REMARK  141  A    between atoms: _356  and  _357
REMARK  142  A    between atoms: _362  and  _364
REMARK  143  A    between atoms: _364  and  _365
REMARK  144  A    between atoms: _364  and  _367
REMARK  145  A    between atoms: _367  and  _368
REMARK  146  A    between atoms: _368  and  _369
REMARK  147  A    between atoms: _371  and  _373
REMARK  148  A    between atoms: _373  and  _374
REMARK  149  A    between atoms: _373  and  _376
REMARK  150  A    between atoms: _376  and  _377
REMARK  151  A    between atoms: _377  and  _378
REMARK  152  A    between atoms: _381  and  _383
REMARK  153  A    between atoms: _383  and  _384
REMARK  154  A    between atoms: _383  and  _386
REMARK  155  A    between atoms: _386  and  _387
REMARK  156  A    between atoms: _387  and  _388
REMARK  157  A    between atoms: _388  and  _389
REMARK  158  A    between atoms: _389  and  _390
REMARK  159  A    between atoms: _394  and  _396
REMARK  160  A    between atoms: _396  and  _397
REMARK  161  A    between atoms: _400  and  _402
REMARK  162  A    between atoms: _402  and  _403
REMARK  163  A    between atoms: _402  and  _405
REMARK  164  A    between atoms: _408  and  _410
REMARK  165  A    between atoms: _410  and  _411
REMARK  166  A    between atoms: _410  and  _413
REMARK  167  A    between atoms: _413  and  _414
REMARK  168  A    between atoms: _417  and  _419
REMARK  169  A    between atoms: _419  and  _420
REMARK  170  A    between atoms: _419  and  _422
REMARK  171  A    between atoms: _424  and  _426
REMARK  172  A    between atoms: _426  and  _427
REMARK  173  A    between atoms: _426  and  _429
REMARK  174  A    between atoms: _429  and  _430
REMARK  175  A    between atoms: _433  and  _435
REMARK  176  A    between atoms: _435  and  _436
REMARK  177  A    between atoms: _435  and  _438
REMARK  178  A    between atoms: _439  and  _440
REMARK  179  A    between atoms: _440  and  _441
REMARK  180  A    between atoms: _441  and  _442
REMARK  181  A    between atoms: _446  and  _448
REMARK  182  A    between atoms: _448  and  _449
REMARK  183  A    between atoms: _448  and  _451
REMARK  184  A    between atoms: _451  and  _452
REMARK  185  A    between atoms: _452  and  _453
REMARK  186  A    between atoms: _456  and  _458
REMARK  187  A    between atoms: _458  and  _459
REMARK  188  A    between atoms: _458  and  _461
REMARK  189  A    between atoms: _461  and  _462
REMARK  190  A    between atoms: _467  and  _469
REMARK  191  A    between atoms: _469  and  _470
REMARK  192  A    between atoms: _469  and  _472
REMARK  193  A    between atoms: _472  and  _473
REMARK  194  A    between atoms: _478  and  _480
REMARK  195  A    between atoms: _480  and  _481
REMARK  196  A    between atoms: _480  and  _483
REMARK  197  A    between atoms: _486  and  _488
REMARK  198  A    between atoms: _488  and  _489
REMARK  199  A    between atoms: _488  and  _491
REMARK  200  A    between atoms: _491  and  _492
REMARK  201  A    between atoms: _497  and  _498
REMARK  202  A    between atoms: _500  and  _502
REMARK  203  A    between atoms: _502  and  _503
REMARK  204  A    between atoms: _502  and  _505
REMARK  205  A    between atoms: _505  and  _506
REMARK  206  A    between atoms: _506  and  _507
REMARK  207  A    between atoms: _511  and  _512
REMARK  208  A    between atoms: _517  and  _519
REMARK  209  A    between atoms: _519  and  _520
REMARK  210  A    between atoms: _519  and  _522
REMARK  211  A    between atoms: _522  and  _523
REMARK  212  A    between atoms: _528  and  _529
REMARK  213  A    between atoms: _531  and  _533
REMARK  214  A    between atoms: _533  and  _534
REMARK  215  A    between atoms: _533  and  _536
REMARK  216  A    between atoms: _536  and  _537
REMARK  217  A    between atoms: _542  and  _544
REMARK  218  A    between atoms: _544  and  _545
REMARK  219  A    between atoms: _544  and  _547
REMARK  220  A    between atoms: _547  and  _548
REMARK  221  A    between atoms: _551  and  _553
REMARK  222  A    between atoms: _553  and  _554
REMARK  223  A    between atoms: _553  and  _556
REMARK  224  A    between atoms: _556  and  _557
REMARK  225  A    between atoms: _560  and  _562
REMARK  226  A    between atoms: _562  and  _563
REMARK  227  A    between atoms: _562  and  _565
REMARK  228  A    between atoms: _565  and  _566
REMARK  229  A    between atoms: _569  and  _571
REMARK  230  A    between atoms: _571  and  _572
REMARK  231  A    between atoms: _575  and  _577
REMARK  232  A    between atoms: _577  and  _578
REMARK  233  A    between atoms: _577  and  _580
REMARK  234  A    between atoms: _580  and  _581
REMARK  235  A    between atoms: _581  and  _582
REMARK  236  A    between atoms: _582  and  _583
REMARK  237  A    between atoms: _583  and  _584
REMARK                            x       y       z     vdW  Elec       q    Type
REMARK                         _______ _______ _______ _____ _____    ______ ____
ROOT
ATOM      1  CA  ALA A   1      -0.487 -32.244 -10.177  0.00  0.00    +0.133 C 
ATOM      2  CB  ALA A   1      -1.141 -31.383 -11.264  0.00  0.00    +0.027 C 
ENDROOT
BRANCH   1   3
ATOM      3  N   ALA A   1      -0.305 -31.482  -8.954  0.00  0.00    -0.239 NA
ATOM      4  H   ALA A   1      -0.602 -30.486  -8.930  0.00  0.00    +0.142 HD
ENDBRANCH   1   3
BRANCH   1   5
ATOM      5  C   ALA A   1       0.847 -32.805 -10.665  0.00  0.00    +0.224 C 
ATOM      6  O   ALA A   1       1.911 -32.251 -10.389  0.00  0.00    -0.287 OA
ENDBRANCH   1   5
TORSDOF 2
REMARK  Name = ../refined-set-2016/3qqa/3qqa_pocket.pdb
REMARK  237 active torsions:
REMARK  status: ('A' for Active; 'I' for Inactive)
REMARK    1  A    between atoms: _1  and  _3
REMARK    2  A    between atoms: _3  and  _4
REMARK    3  A    between atoms: _3  and  _6
REMARK    4  A    between atoms: _6  and  _7
REMARK    5  A    between atoms: _13  and  _15
REMARK    6  A    between atoms: _15  and  _16
REMARK    7  A    between atoms: _15  and  _18
REMARK    8  A    between atoms: _18  and  _19
REMARK    9  A    between atoms: _25  and  _27
REMARK   10  A    between atoms: _27  and  _28
REMARK   11  A    between atoms: _27  and  _30
REMARK   12  A    between atoms: _30  and  _31
REMARK   13  A    between atoms: _34  and  _36
REMARK   14  A    between atoms: _36  and  _37
REMARK   15  A    between atoms: _36  and  _39
REMARK   16  A    between atoms: _39  and  _40
REMARK   17  A    between atoms: _43  and  _45
REMARK   18  A    between atoms: _45  and  _46
REMARK   19  A    between atoms: _45  and  _48
REMARK   20  A    between atoms: _48  and  _49
REMARK   21  A    between atoms: _52  and  _54
REMARK   22  A    between atoms: _54  and  _55
REMARK   23  A    between atoms: _54  and  _57
REMARK   24  A    between atoms: _57  and  _58
REMARK   25  A    between atoms: _61  and  _63
REMARK   26  A    between atoms: _63  and  _64
REMARK   27  A    between atoms: _63  and  _66
REMARK   28  A    between atoms: _68  and  _70
REMARK   29  A    between atoms: _70  and  _71
REMARK   30  A    between atoms: _70  and  _73
REMARK   31  A    between atoms: _73  and  _74
REMARK   32  A    between atoms: _79  and  _81
REMARK   33  A    between atoms: _81  and  _82
REMARK   34  A    between atoms: _81  and  _84
REMARK   35  A    between atoms: _84  and  _85
REMARK   36  A    between atoms: _91  and  _93
REMARK   37  A    between atoms: _93  and  _94
REMARK   38  A    between atoms: _93  and  _96
REMARK   39  A    between atoms: _96  and  _97
REMARK   40  A    between atoms: _103  and  _105
REMARK   41  A    between atoms: _105  and  _106
REMARK   42  A    between atoms: _105  and  _108
REMARK   43  A    between atoms: _108  and  _109
REMARK   44  A    between atoms: _112  and  _114
REMARK   45  A    between atoms: _114  and  _115
REMARK   46  A    between atoms: _114  and  _117
REMARK   47  A    between atoms: _117  and  _118
REMARK   48  A    between atoms: _124  and  _126
REMARK   49  A    between atoms: _126  and  _127
REMARK   50  A    between atoms: _126  and  _129
REMARK   51  A    between atoms: _129  and  _130
REMARK   52  A    between atoms: _135  and  _137
REMARK   53  A    between atoms: _137  and  _138
REMARK   54  A    between atoms: _137  and  _140
REMARK   55  A    between atoms: _140  and  _141
REMARK   56  A    between atoms: _141  and  _142
REMARK   57  A    between atoms: _147  and  _149
REMARK   58  A    between atoms: _149  and  _150
REMARK   59  A    between atoms: _149  and  _152
REMARK   60  A    between atoms: _152  and  _153
REMARK   61  A    between atoms: _153  and  _154
REMARK   62  A    between atoms: _157  and  _159
REMARK   63  A    between atoms: _159  and  _160
REMARK   64  A    between atoms: _163  and  _165
REMARK   65  A    between atoms: _165  and  _166
REMARK   66  A    between atoms: _165  and  _168
REMARK   67  A    between atoms: _171  and  _173
REMARK   68  A    between atoms: _173  and  _174
REMARK   69  A    between atoms: _177  and  _179
REMARK   70  A    between atoms: _179  and  _180
REMARK   71  A    between atoms: _179  and  _182
REMARK   72  A    between atoms: _182  and  _183
REMARK   73  A    between atoms: _189  and  _191
REMARK   74  A    between atoms: _191  and  _192
REMARK   75  A    between atoms: _194  and  _196
REMARK   76  A    between atoms: _196  and  _197
REMARK   77  A    between atoms: _196  and  _199
REMARK   78  A    between atoms: _199  and  _200
REMARK   79  A    between atoms: _200  and  _201
REMARK   80  A    between atoms: _201  and  _202
REMARK   81  A    between atoms: _202  and  _203
REMARK   82  A    between atoms: _207  and  _209
REMARK   83  A    between atoms: _209  and  _210
REMARK   84  A    between atoms: _209  and  _212
REMARK   85  A    between atoms: _212  and  _213
REMARK   86  A    between atoms: _216  and  _218
REMARK   87  A    between atoms: _218  and  _219
REMARK   88  A    between atoms: _218  and  _221
REMARK   89  A    between atoms: _221  and  _222
REMARK   90  A    between atoms: _225  and  _227
REMARK   91  A    between atoms: _227  and  _228
REMARK   92  A    between atoms: _227  and  _230
REMARK   93  A    between atoms: _230  and  _231
REMARK   94  A    between atoms: _236  and  _237
REMARK   95  A    between atoms: _239  and  _241
REMARK   96  A    between atoms: _241  and  _242
REMARK   97  A    between atoms: _241  and  _244
REMARK   98  A    between atoms: _244  and  _245
REMARK   99  A    between atoms: _248  and  _250
REMARK  100  A    between atoms: _250  and  _251
REMARK  101  A    between atoms: _250  and  _253
REMARK  102  A    between atoms: _253  and  _254
REMARK  103  A    between atoms: _264  and  _266
REMARK  104  A    between atoms: _266  and  _267
REMARK  105  A    between atoms: _266  and  _269
REMARK  106  A    between atoms: _269  and  _270
REMARK  107  A    between atoms: _273  and  _275
REMARK  108  A    between atoms: _275  and  _276
REMARK  109  A    between atoms: _275  and  _278
REMARK  110  A    between atoms: _278  and  _279
REMARK  111  A    between atoms: _279  and  _280
REMARK  112  A    between atoms: _283  and  _285
REMARK  113  A    between atoms: _285  and  _286
REMARK  114  A    between atoms: _285  and  _288
REMARK  115  A    between atoms: _288  and  _289
REMARK  116  A    between atoms: _294  and  _296
REMARK  117  A    between atoms: _296  and  _297
REMARK  118  A    between atoms: _296  and  _299
REMARK  119  A    between atoms: _299  and  _300
REMARK  120  A    between atoms: _300  and  _301
REMARK  121  A    between atoms: _306  and  _308
REMARK  122  A    between atoms: _308  and  _309
REMARK  123  A    between atoms: _308  and  _311
REMARK  124  A    between atoms: _311  and  _312
REMARK  125  A    between atoms: _317  and  _319
REMARK  126  A    between atoms: _319  and  _320
REMARK  127  A    between atoms: _319  and  _322
REMARK  128  A    between atoms: _322  and  _323
REMARK  129  A    between atoms: _329  and  _331
REMARK  130  A    between atoms: _331  and  _332
REMARK  131  A    between atoms: _331  and  _334
REMARK  132  A    between atoms: _334  and  _335
REMARK  133  A    between atoms: _337  and  _339
REMARK  134  A    between atoms: _339  and  _340
REMARK  135  A    between atoms: _339  and  _342
REMARK  136  A    between atoms: _342  and  _343
REMARK  137  A    between atoms: _348  and  _349
REMARK  138  A    between atoms: _351  and  _353
REMARK  139  A    between atoms: _353  and  _354
REMARK  140  A    between atoms: _353  and  _356
REMARK  141  A    between atoms: _356  and  _357
REMARK  142  A    between atoms: _362  and  _364
REMARK  143  A    between atoms: _364  and  _365
REMARK  144  A    between atoms: _364  and  _367
REMARK  145  A    between atoms: _367  and  _368
REMARK  146  A    between atoms: _368  and  _369
REMARK  147  A    between atoms: _371  and  _373
REMARK  148  A    between atoms: _373  and  _374
REMARK  149  A    between atoms: _373  and  _376
REMARK  150  A    between atoms: _376  and  _377
REMARK  151  A    between atoms: _377  and  _378
REMARK  152  A    between atoms: _381  and  _383
REMARK  153  A    between atoms: _383  and  _384
REMARK  154  A    between atoms: _383  and  _386
REMARK  155  A    between atoms: _386  and  _387
REMARK  156  A    between atoms: _387  and  _388
REMARK  157  A    between atoms: _388  and  _389
REMARK  158  A    between atoms: _389  and  _390
REMARK  159  A    between atoms: _394  and  _396
REMARK  160  A    between atoms: _396  and  _397
REMARK  161  A    between atoms: _400  and  _402
REMARK  162  A    between atoms: _402  and  _403
REMARK  163  A    between atoms: _402  and  _405
REMARK  164  A    between atoms: _408  and  _410
REMARK  165  A    between atoms: _410  and  _411
REMARK  166  A    between atoms: _410  and  _413
REMARK  167  A    between atoms: _413  and  _414
REMARK  168  A    between atoms: _417  and  _419
REMARK  169  A    between atoms: _419  and  _420
REMARK  170  A    between atoms: _419  and  _422
REMARK  171  A    between atoms: _424  and  _426
REMARK  172  A    between atoms: _426  and  _427
REMARK  173  A    between atoms: _426  and  _429
REMARK  174  A    between atoms: _429  and  _430
REMARK  175  A    between atoms: _433  and  _435
REMARK  176  A    between atoms: _435  and  _436
REMARK  177  A    between atoms: _435  and  _438
REMARK  178  A    between atoms: _439  and  _440
REMARK  179  A    between atoms: _440  and  _441
REMARK  180  A    between atoms: _441  and  _442
REMARK  181  A    between atoms: _446  and  _448
REMARK  182  A    between atoms: _448  and  _449
REMARK  183  A    between atoms: _448  and  _451
REMARK  184  A    between atoms: _451  and  _452
REMARK  185  A    between atoms: _452  and  _453
REMARK  186  A    between atoms: _456  and  _458
REMARK  187  A    between atoms: _458  and  _459
REMARK  188  A    between atoms: _458  and  _461
REMARK  189  A    between atoms: _461  and  _462
REMARK  190  A    between atoms: _467  and  _469
REMARK  191  A    between atoms: _469  and  _470
REMARK  192  A    between atoms: _469  and  _472
REMARK  193  A    between atoms: _472  and  _473
REMARK  194  A    between atoms: _478  and  _480
REMARK  195  A    between atoms: _480  and  _481
REMARK  196  A    between atoms: _480  and  _483
REMARK  197  A    between atoms: _486  and  _488
REMARK  198  A    between atoms: _488  and  _489
REMARK  199  A    between atoms: _488  and  _491
REMARK  200  A    between atoms: _491  and  _492
REMARK  201  A    between atoms: _497  and  _498
REMARK  202  A    between atoms: _500  and  _502
REMARK  203  A    between atoms: _502  and  _503
REMARK  204  A    between atoms: _502  and  _505
REMARK  205  A    between atoms: _505  and  _506
REMARK  206  A    between atoms: _506  and  _507
REMARK  207  A    between atoms: _511  and  _512
REMARK  208  A    between atoms: _517  and  _519
REMARK  209  A    between atoms: _519  and  _520
REMARK  210  A    between atoms: _519  and  _522
REMARK  211  A    between atoms: _522  and  _523
REMARK  212  A    between atoms: _528  and  _529
REMARK  213  A    between atoms: _531  and  _533
REMARK  214  A    between atoms: _533  and  _534
REMARK  215  A    between atoms: _533  and  _536
REMARK  216  A    between atoms: _536  and  _537
REMARK  217  A    between atoms: _542  and  _544
REMARK  218  A    between atoms: _544  and  _545
REMARK  219  A    between atoms: _544  and  _547
REMARK  220  A    between atoms: _547  and  _548
REMARK  221  A    between atoms: _551  and  _553
REMARK  222  A    between atoms: _553  and  _554
REMARK  223  A    between atoms: _553  and  _556
REMARK  224  A    between atoms: _556  and  _557
REMARK  225  A    between atoms: _560  and  _562
REMARK  226  A    between atoms: _562  and  _563
REMARK  227  A    between atoms: _562  and  _565
REMARK  228  A    between atoms: _565  and  _566
REMARK  229  A    between atoms: _569  and  _571
REMARK  230  A    between atoms: _571  and  _572
REMARK  231  A    between atoms: _575  and  _577
REMARK  232  A    between atoms: _577  and  _578
REMARK  233  A    between atoms: _577  and  _580
REMARK  234  A    between atoms: _580  and  _581
REMARK  235  A    between atoms: _581  and  _582
REMARK  236  A    between atoms: _582  and  _583
REMARK  237  A    between atoms: _583  and  _584
REMARK                            x       y       z     vdW  Elec       q    Type
REMARK                         _______ _______ _______ _____ _____    ______ ____
ROOT
ATOM      1  CG  LYS A   1       4.120 -32.145 -18.757  0.00  0.00    -0.000 C 
ENDROOT
BRANCH   1   2
ATOM      2  CB  LYS A   1       5.473 -32.824 -18.491  0.00  0.00    +0.025 C 
BRANCH   2   3
ATOM      3  CA  LYS A   1       5.495 -33.886 -17.389  0.00  0.00    +0.133 C 
BRANCH   3   4
ATOM      4  N   LYS A   1       5.383 -33.260 -16.087  0.00  0.00    -0.239 NA
ATOM      5  H   LYS A   1       5.636 -32.258 -15.974  0.00  0.00    +0.142 HD
ENDBRANCH   3   4
BRANCH   3   6
ATOM      6  C   LYS A   1       6.811 -34.664 -17.447  0.00  0.00    +0.224 C 
ATOM      7  O   LYS A   1       7.846 -34.161 -17.019  0.00  0.00    -0.287 OA
ENDBRANCH   3   6
ENDBRANCH   2   3
ENDBRANCH   1   2
BRANCH   1   8
ATOM      8  CD  LYS A   1       4.246 -31.245 -20.001  0.00  0.00    -0.024 C 
BRANCH   8   9
ATOM      9  CE  LYS A   1       3.083 -30.287 -20.141  0.00  0.00    -0.086 C 
BRANCH   9  10
ATOM     10  NZ  LYS A   1       1.792 -31.000 -20.115  0.00  0.00    +0.380 N 
ATOM     11  HZ1 LYS A   1       1.696 -31.507 -19.212  0.00  0.00    -0.089 HD
ATOM     12  HZ2 LYS A   1       1.016 -30.314 -20.213  0.00  0.00    -0.089 HD
ATOM     13  HZ3 LYS A   1       1.757 -31.680 -20.901  0.00  0.00    -0.089 HD
ENDBRANCH   9  10
ENDBRANCH   8   9
ENDBRANCH   1   8
TORSDOF 7
REMARK  Name = ../refined-set-2016/3qqa/3qqa_pocket.pdb
REMARK  237 active torsions:
REMARK  status: ('A' for Active; 'I' for Inactive)
REMARK    1  A    between atoms: _1  and  _3
REMARK    2  A    between atoms: _3  and  _4
REMARK    3  A    between atoms: _3  and  _6
REMARK    4  A    between atoms: _6  and  _7
REMARK    5  A    between atoms: _13  and  _15
REMARK    6  A    between atoms: _15  and  _16
REMARK    7  A    between atoms: _15  and  _18
REMARK    8  A    between atoms: _18  and  _19
REMARK    9  A    between atoms: _25  and  _27
REMARK   10  A    between atoms: _27  and  _28
REMARK   11  A    between atoms: _27  and  _30
REMARK   12  A    between atoms: _30  and  _31
REMARK   13  A    between atoms: _34  and  _36
REMARK   14  A    between atoms: _36  and  _37
REMARK   15  A    between atoms: _36  and  _39
REMARK   16  A    between atoms: _39  and  _40
REMARK   17  A    between atoms: _43  and  _45
REMARK   18  A    between atoms: _45  and  _46
REMARK   19  A    between atoms: _45  and  _48
REMARK   20  A    between atoms: _48  and  _49
REMARK   21  A    between atoms: _52  and  _54
REMARK   22  A    between atoms: _54  and  _55
REMARK   23  A    between atoms: _54  and  _57
REMARK   24  A    between atoms: _57  and  _58
REMARK   25  A    between atoms: _61  and  _63
REMARK   26  A    between atoms: _63  and  _64
REMARK   27  A    between atoms: _63  and  _66
REMARK   28  A    between atoms: _68  and  _70
REMARK   29  A    between atoms: _70  and  _71
REMARK   30  A    between atoms: _70  and  _73
REMARK   31  A    between atoms: _73  and  _74
REMARK   32  A    between atoms: _79  and  _81
REMARK   33  A    between atoms: _81  and  _82
REMARK   34  A    between atoms: _81  and  _84
REMARK   35  A    between atoms: _84  and  _85
REMARK   36  A    between atoms: _91  and  _93
REMARK   37  A    between atoms: _93  and  _94
REMARK   38  A    between atoms: _93  and  _96
REMARK   39  A    between atoms: _96  and  _97
REMARK   40  A    between atoms: _103  and  _105
REMARK   41  A    between atoms: _105  and  _106
REMARK   42  A    between atoms: _105  and  _108
REMARK   43  A    between atoms: _108  and  _109
REMARK   44  A    between atoms: _112  and  _114
REMARK   45  A    between atoms: _114  and  _115
REMARK   46  A    between atoms: _114  and  _117
REMARK   47  A    between atoms: _117  and  _118
REMARK   48  A    between atoms: _124  and  _126
REMARK   49  A    between atoms: _126  and  _127
REMARK   50  A    between atoms: _126  and  _129
REMARK   51  A    between atoms: _129  and  _130
REMARK   52  A    between atoms: _135  and  _137
REMARK   53  A    between atoms: _137  and  _138
REMARK   54  A    between atoms: _137  and  _140
REMARK   55  A    between atoms: _140  and  _141
REMARK   56  A    between atoms: _141  and  _142
REMARK   57  A    between atoms: _147  and  _149
REMARK   58  A    between atoms: _149  and  _150
REMARK   59  A    between atoms: _149  and  _152
REMARK   60  A    between atoms: _152  and  _153
REMARK   61  A    between atoms: _153  and  _154
REMARK   62  A    between atoms: _157  and  _159
REMARK   63  A    between atoms: _159  and  _160
REMARK   64  A    between atoms: _163  and  _165
REMARK   65  A    between atoms: _165  and  _166
REMARK   66  A    between atoms: _165  and  _168
REMARK   67  A    between atoms: _171  and  _173
REMARK   68  A    between atoms: _173  and  _174
REMARK   69  A    between atoms: _177  and  _179
REMARK   70  A    between atoms: _179  and  _180
REMARK   71  A    between atoms: _179  and  _182
REMARK   72  A    between atoms: _182  and  _183
REMARK   73  A    between atoms: _189  and  _191
REMARK   74  A    between atoms: _191  and  _192
REMARK   75  A    between atoms: _194  and  _196
REMARK   76  A    between atoms: _196  and  _197
REMARK   77  A    between atoms: _196  and  _199
REMARK   78  A    between atoms: _199  and  _200
REMARK   79  A    between atoms: _200  and  _201
REMARK   80  A    between atoms: _201  and  _202
REMARK   81  A    between atoms: _202  and  _203
REMARK   82  A    between atoms: _207  and  _209
REMARK   83  A    between atoms: _209  and  _210
REMARK   84  A    between atoms: _209  and  _212
REMARK   85  A    between atoms: _212  and  _213
REMARK   86  A    between atoms: _216  and  _218
REMARK   87  A    between atoms: _218  and  _219
REMARK   88  A    between atoms: _218  and  _221
REMARK   89  A    between atoms: _221  and  _222
REMARK   90  A    between atoms: _225  and  _227
REMARK   91  A    between atoms: _227  and  _228
REMARK   92  A    between atoms: _227  and  _230
REMARK   93  A    between atoms: _230  and  _231
REMARK   94  A    between atoms: _236  and  _237
REMARK   95  A    between atoms: _239  and  _241
REMARK   96  A    between atoms: _241  and  _242
REMARK   97  A    between atoms: _241  and  _244
REMARK   98  A    between atoms: _244  and  _245
REMARK   99  A    between atoms: _248  and  _250
REMARK  100  A    between atoms: _250  and  _251
REMARK  101  A    between atoms: _250  and  _253
REMARK  102  A    between atoms: _253  and  _254
REMARK  103  A    between atoms: _264  and  _266
REMARK  104  A    between atoms: _266  and  _267
REMARK  105  A    between atoms: _266  and  _269
REMARK  106  A    between atoms: _269  and  _270
REMARK  107  A    between atoms: _273  and  _275
REMARK  108  A    between atoms: _275  and  _276
REMARK  109  A    between atoms: _275  and  _278
REMARK  110  A    between atoms: _278  and  _279
REMARK  111  A    between atoms: _279  and  _280
REMARK  112  A    between atoms: _283  and  _285
REMARK  113  A    between atoms: _285  and  _286
REMARK  114  A    between atoms: _285  and  _288
REMARK  115  A    between atoms: _288  and  _289
REMARK  116  A    between atoms: _294  and  _296
REMARK  117  A    between atoms: _296  and  _297
REMARK  118  A    between atoms: _296  and  _299
REMARK  119  A    between atoms: _299  and  _300
REMARK  120  A    between atoms: _300  and  _301
REMARK  121  A    between atoms: _306  and  _308
REMARK  122  A    between atoms: _308  and  _309
REMARK  123  A    between atoms: _308  and  _311
REMARK  124  A    between atoms: _311  and  _312
REMARK  125  A    between atoms: _317  and  _319
REMARK  126  A    between atoms: _319  and  _320
REMARK  127  A    between atoms: _319  and  _322
REMARK  128  A    between atoms: _322  and  _323
REMARK  129  A    between atoms: _329  and  _331
REMARK  130  A    between atoms: _331  and  _332
REMARK  131  A    between atoms: _331  and  _334
REMARK  132  A    between atoms: _334  and  _335
REMARK  133  A    between atoms: _337  and  _339
REMARK  134  A    between atoms: _339  and  _340
REMARK  135  A    between atoms: _339  and  _342
REMARK  136  A    between atoms: _342  and  _343
REMARK  137  A    between atoms: _348  and  _349
REMARK  138  A    between atoms: _351  and  _353
REMARK  139  A    between atoms: _353  and  _354
REMARK  140  A    between atoms: _353  and  _356
REMARK  141  A    between atoms: _356  and  _357
REMARK  142  A    between atoms: _362  and  _364
REMARK  143  A    between atoms: _364  and  _365
REMARK  144  A    between atoms: _364  and  _367
REMARK  145  A    between atoms: _367  and  _368
REMARK  146  A    between atoms: _368  and  _369
REMARK  147  A    between atoms: _371  and  _373
REMARK  148  A    between atoms: _373  and  _374
REMARK  149  A    between atoms: _373  and  _376
REMARK  150  A    between atoms: _376  and  _377
REMARK  151  A    between atoms: _377  and  _378
REMARK  152  A    between atoms: _381  and  _383
REMARK  153  A    between atoms: _383  and  _384
REMARK  154  A    between atoms: _383  and  _386
REMARK  155  A    between atoms: _386  and  _387
REMARK  156  A    between atoms: _387  and  _388
REMARK  157  A    between atoms: _388  and  _389
REMARK  158  A    between atoms: _389  and  _390
REMARK  159  A    between atoms: _394  and  _396
REMARK  160  A    between atoms: _396  and  _397
REMARK  161  A    between atoms: _400  and  _402
REMARK  162  A    between atoms: _402  and  _403
REMARK  163  A    between atoms: _402  and  _405
REMARK  164  A    between atoms: _408  and  _410
REMARK  165  A    between atoms: _410  and  _411
REMARK  166  A    between atoms: _410  and  _413
REMARK  167  A    between atoms: _413  and  _414
REMARK  168  A    between atoms: _417  and  _419
REMARK  169  A    between atoms: _419  and  _420
REMARK  170  A    between atoms: _419  and  _422
REMARK  171  A    between atoms: _424  and  _426
REMARK  172  A    between atoms: _426  and  _427
REMARK  173  A    between atoms: _426  and  _429
REMARK  174  A    between atoms: _429  and  _430
REMARK  175  A    between atoms: _433  and  _435
REMARK  176  A    between atoms: _435  and  _436
REMARK  177  A    between atoms: _435  and  _438
REMARK  178  A    between atoms: _439  and  _440
REMARK  179  A    between atoms: _440  and  _441
REMARK  180  A    between atoms: _441  and  _442
REMARK  181  A    between atoms: _446  and  _448
REMARK  182  A    between atoms: _448  and  _449
REMARK  183  A    between atoms: _448  and  _451
REMARK  184  A    between atoms: _451  and  _452
REMARK  185  A    between atoms: _452  and  _453
REMARK  186  A    between atoms: _456  and  _458
REMARK  187  A    between atoms: _458  and  _459
REMARK  188  A    between atoms: _458  and  _461
REMARK  189  A    between atoms: _461  and  _462
REMARK  190  A    between atoms: _467  and  _469
REMARK  191  A    between atoms: _469  and  _470
REMARK  192  A    between atoms: _469  and  _472
REMARK  193  A    between atoms: _472  and  _473
REMARK  194  A    between atoms: _478  and  _480
REMARK  195  A    between atoms: _480  and  _481
REMARK  196  A    between atoms: _480  and  _483
REMARK  197  A    between atoms: _486  and  _488
REMARK  198  A    between atoms: _488  and  _489
REMARK  199  A    between atoms: _488  and  _491
REMARK  200  A    between atoms: _491  and  _492
REMARK  201  A    between atoms: _497  and  _498
REMARK  202  A    between atoms: _500  and  _502
REMARK  203  A    between atoms: _502  and  _503
REMARK  204  A    between atoms: _502  and  _505
REMARK  205  A    between atoms: _505  and  _506
REMARK  206  A    between atoms: _506  and  _507
REMARK  207  A    between atoms: _511  and  _512
REMARK  208  A    between atoms: _517  and  _519
REMARK  209  A    between atoms: _519  and  _520
REMARK  210  A    between atoms: _519  and  _522
REMARK  211  A    between atoms: _522  and  _523
REMARK  212  A    between atoms: _528  and  _529
REMARK  213  A    between atoms: _531  and  _533
REMARK  214  A    between atoms: _533  and  _534
REMARK  215  A    between atoms: _533  and  _536
REMARK  216  A    between atoms: _536  and  _537
REMARK  217  A    between atoms: _542  and  _544
REMARK  218  A    between atoms: _544  and  _545
REMARK  219  A    between atoms: _544  and  _547
REMARK  220  A    between atoms: _547  and  _548
REMARK  221  A    between atoms: _551  and  _553
REMARK  222  A    between atoms: _553  and  _554
REMARK  223  A    between atoms: _553  and  _556
REMARK  224  A    between atoms: _556  and  _557
REMARK  225  A    between atoms: _560  and  _562
REMARK  226  A    between atoms: _562  and  _563
REMARK  227  A    between atoms: _562  and  _565
REMARK  228  A    between atoms: _565  and  _566
REMARK  229  A    between atoms: _569  and  _571
REMARK  230  A    between atoms: _571  and  _572
REMARK  231  A    between atoms: _575  and  _577
REMARK  232  A    between atoms: _577  and  _578
REMARK  233  A    between atoms: _577  and  _580
REMARK  234  A    between atoms: _580  and  _581
REMARK  235  A    between atoms: _581  and  _582
REMARK  236  A    between atoms: _582  and  _583
REMARK  237  A    between atoms: _583  and  _584
REMARK                            x       y       z     vdW  Elec       q    Type
REMARK                         _______ _______ _______ _____ _____    ______ ____
ROOT
ATOM      1  O   HOH     1     -12.771 -20.105 -15.589  0.00  0.00    +0.000 OA
ENDROOT
TORSDOF 0
REMARK  Name = ../refined-set-2016/3qqa/3qqa_pocket.pdb
REMARK  237 active torsions:
REMARK  status: ('A' for Active; 'I' for Inactive)
REMARK    1  A    between atoms: _1  and  _3
REMARK    2  A    between atoms: _3  and  _4
REMARK    3  A    between atoms: _3  and  _6
REMARK    4  A    between atoms: _6  and  _7
REMARK    5  A    between atoms: _13  and  _15
REMARK    6  A    between atoms: _15  and  _16
REMARK    7  A    between atoms: _15  and  _18
REMARK    8  A    between atoms: _18  and  _19
REMARK    9  A    between atoms: _25  and  _27
REMARK   10  A    between atoms: _27  and  _28
REMARK   11  A    between atoms: _27  and  _30
REMARK   12  A    between atoms: _30  and  _31
REMARK   13  A    between atoms: _34  and  _36
REMARK   14  A    between atoms: _36  and  _37
REMARK   15  A    between atoms: _36  and  _39
REMARK   16  A    between atoms: _39  and  _40
REMARK   17  A    between atoms: _43  and  _45
REMARK   18  A    between atoms: _45  and  _46
REMARK   19  A    between atoms: _45  and  _48
REMARK   20  A    between atoms: _48  and  _49
REMARK   21  A    between atoms: _52  and  _54
REMARK   22  A    between atoms: _54  and  _55
REMARK   23  A    between atoms: _54  and  _57
REMARK   24  A    between atoms: _57  and  _58
REMARK   25  A    between atoms: _61  and  _63
REMARK   26  A    between atoms: _63  and  _64
REMARK   27  A    between atoms: _63  and  _66
REMARK   28  A    between atoms: _68  and  _70
REMARK   29  A    between atoms: _70  and  _71
REMARK   30  A    between atoms: _70  and  _73
REMARK   31  A    between atoms: _73  and  _74
REMARK   32  A    between atoms: _79  and  _81
REMARK   33  A    between atoms: _81  and  _82
REMARK   34  A    between atoms: _81  and  _84
REMARK   35  A    between atoms: _84  and  _85
REMARK   36  A    between atoms: _91  and  _93
REMARK   37  A    between atoms: _93  and  _94
REMARK   38  A    between atoms: _93  and  _96
REMARK   39  A    between atoms: _96  and  _97
REMARK   40  A    between atoms: _103  and  _105
REMARK   41  A    between atoms: _105  and  _106
REMARK   42  A    between atoms: _105  and  _108
REMARK   43  A    between atoms: _108  and  _109
REMARK   44  A    between atoms: _112  and  _114
REMARK   45  A    between atoms: _114  and  _115
REMARK   46  A    between atoms: _114  and  _117
REMARK   47  A    between atoms: _117  and  _118
REMARK   48  A    between atoms: _124  and  _126
REMARK   49  A    between atoms: _126  and  _127
REMARK   50  A    between atoms: _126  and  _129
REMARK   51  A    between atoms: _129  and  _130
REMARK   52  A    between atoms: _135  and  _137
REMARK   53  A    between atoms: _137  and  _138
REMARK   54  A    between atoms: _137  and  _140
REMARK   55  A    between atoms: _140  and  _141
REMARK   56  A    between atoms: _141  and  _142
REMARK   57  A    between atoms: _147  and  _149
REMARK   58  A    between atoms: _149  and  _150
REMARK   59  A    between atoms: _149  and  _152
REMARK   60  A    between atoms: _152  and  _153
REMARK   61  A    between atoms: _153  and  _154
REMARK   62  A    between atoms: _157  and  _159
REMARK   63  A    between atoms: _159  and  _160
REMARK   64  A    between atoms: _163  and  _165
REMARK   65  A    between atoms: _165  and  _166
REMARK   66  A    between atoms: _165  and  _168
REMARK   67  A    between atoms: _171  and  _173
REMARK   68  A    between atoms: _173  and  _174
REMARK   69  A    between atoms: _177  and  _179
REMARK   70  A    between atoms: _179  and  _180
REMARK   71  A    between atoms: _179  and  _182
REMARK   72  A    between atoms: _182  and  _183
REMARK   73  A    between atoms: _189  and  _191
REMARK   74  A    between atoms: _191  and  _192
REMARK   75  A    between atoms: _194  and  _196
REMARK   76  A    between atoms: _196  and  _197
REMARK   77  A    between atoms: _196  and  _199
REMARK   78  A    between atoms: _199  and  _200
REMARK   79  A    between atoms: _200  and  _201
REMARK   80  A    between atoms: _201  and  _202
REMARK   81  A    between atoms: _202  and  _203
REMARK   82  A    between atoms: _207  and  _209
REMARK   83  A    between atoms: _209  and  _210
REMARK   84  A    between atoms: _209  and  _212
REMARK   85  A    between atoms: _212  and  _213
REMARK   86  A    between atoms: _216  and  _218
REMARK   87  A    between atoms: _218  and  _219
REMARK   88  A    between atoms: _218  and  _221
REMARK   89  A    between atoms: _221  and  _222
REMARK   90  A    between atoms: _225  and  _227
REMARK   91  A    between atoms: _227  and  _228
REMARK   92  A    between atoms: _227  and  _230
REMARK   93  A    between atoms: _230  and  _231
REMARK   94  A    between atoms: _236  and  _237
REMARK   95  A    between atoms: _239  and  _241
REMARK   96  A    between atoms: _241  and  _242
REMARK   97  A    between atoms: _241  and  _244
REMARK   98  A    between atoms: _244  and  _245
REMARK   99  A    between atoms: _248  and  _250
REMARK  100  A    between atoms: _250  and  _251
REMARK  101  A    between atoms: _250  and  _253
REMARK  102  A    between atoms: _253  and  _254
REMARK  103  A    between atoms: _264  and  _266
REMARK  104  A    between atoms: _266  and  _267
REMARK  105  A    between atoms: _266  and  _269
REMARK  106  A    between atoms: _269  and  _270
REMARK  107  A    between atoms: _273  and  _275
REMARK  108  A    between atoms: _275  and  _276
REMARK  109  A    between atoms: _275  and  _278
REMARK  110  A    between atoms: _278  and  _279
REMARK  111  A    between atoms: _279  and  _280
REMARK  112  A    between atoms: _283  and  _285
REMARK  113  A    between atoms: _285  and  _286
REMARK  114  A    between atoms: _285  and  _288
REMARK  115  A    between atoms: _288  and  _289
REMARK  116  A    between atoms: _294  and  _296
REMARK  117  A    between atoms: _296  and  _297
REMARK  118  A    between atoms: _296  and  _299
REMARK  119  A    between atoms: _299  and  _300
REMARK  120  A    between atoms: _300  and  _301
REMARK  121  A    between atoms: _306  and  _308
REMARK  122  A    between atoms: _308  and  _309
REMARK  123  A    between atoms: _308  and  _311
REMARK  124  A    between atoms: _311  and  _312
REMARK  125  A    between atoms: _317  and  _319
REMARK  126  A    between atoms: _319  and  _320
REMARK  127  A    between atoms: _319  and  _322
REMARK  128  A    between atoms: _322  and  _323
REMARK  129  A    between atoms: _329  and  _331
REMARK  130  A    between atoms: _331  and  _332
REMARK  131  A    between atoms: _331  and  _334
REMARK  132  A    between atoms: _334  and  _335
REMARK  133  A    between atoms: _337  and  _339
REMARK  134  A    between atoms: _339  and  _340
REMARK  135  A    between atoms: _339  and  _342
REMARK  136  A    between atoms: _342  and  _343
REMARK  137  A    between atoms: _348  and  _349
REMARK  138  A    between atoms: _351  and  _353
REMARK  139  A    between atoms: _353  and  _354
REMARK  140  A    between atoms: _353  and  _356
REMARK  141  A    between atoms: _356  and  _357
REMARK  142  A    between atoms: _362  and  _364
REMARK  143  A    between atoms: _364  and  _365
REMARK  144  A    between atoms: _364  and  _367
REMARK  145  A    between atoms: _367  and  _368
REMARK  146  A    between atoms: _368  and  _369
REMARK  147  A    between atoms: _371  and  _373
REMARK  148  A    between atoms: _373  and  _374
REMARK  149  A    between atoms: _373  and  _376
REMARK  150  A    between atoms: _376  and  _377
REMARK  151  A    between atoms: _377  and  _378
REMARK  152  A    between atoms: _381  and  _383
REMARK  153  A    between atoms: _383  and  _384
REMARK  154  A    between atoms: _383  and  _386
REMARK  155  A    between atoms: _386  and  _387
REMARK  156  A    between atoms: _387  and  _388
REMARK  157  A    between atoms: _388  and  _389
REMARK  158  A    between atoms: _389  and  _390
REMARK  159  A    between atoms: _394  and  _396
REMARK  160  A    between atoms: _396  and  _397
REMARK  161  A    between atoms: _400  and  _402
REMARK  162  A    between atoms: _402  and  _403
REMARK  163  A    between atoms: _402  and  _405
REMARK  164  A    between atoms: _408  and  _410
REMARK  165  A    between atoms: _410  and  _411
REMARK  166  A    between atoms: _410  and  _413
REMARK  167  A    between atoms: _413  and  _414
REMARK  168  A    between atoms: _417  and  _419
REMARK  169  A    between atoms: _419  and  _420
REMARK  170  A    between atoms: _419  and  _422
REMARK  171  A    between atoms: _424  and  _426
REMARK  172  A    between atoms: _426  and  _427
REMARK  173  A    between atoms: _426  and  _429
REMARK  174  A    between atoms: _429  and  _430
REMARK  175  A    between atoms: _433  and  _435
REMARK  176  A    between atoms: _435  and  _436
REMARK  177  A    between atoms: _435  and  _438
REMARK  178  A    between atoms: _439  and  _440
REMARK  179  A    between atoms: _440  and  _441
REMARK  180  A    between atoms: _441  and  _442
REMARK  181  A    between atoms: _446  and  _448
REMARK  182  A    between atoms: _448  and  _449
REMARK  183  A    between atoms: _448  and  _451
REMARK  184  A    between atoms: _451  and  _452
REMARK  185  A    between atoms: _452  and  _453
REMARK  186  A    between atoms: _456  and  _458
REMARK  187  A    between atoms: _458  and  _459
REMARK  188  A    between atoms: _458  and  _461
REMARK  189  A    between atoms: _461  and  _462
REMARK  190  A    between atoms: _467  and  _469
REMARK  191  A    between atoms: _469  and  _470
REMARK  192  A    between atoms: _469  and  _472
REMARK  193  A    between atoms: _472  and  _473
REMARK  194  A    between atoms: _478  and  _480
REMARK  195  A    between atoms: _480  and  _481
REMARK  196  A    between atoms: _480  and  _483
REMARK  197  A    between atoms: _486  and  _488
REMARK  198  A    between atoms: _488  and  _489
REMARK  199  A    between atoms: _488  and  _491
REMARK  200  A    between atoms: _491  and  _492
REMARK  201  A    between atoms: _497  and  _498
REMARK  202  A    between atoms: _500  and  _502
REMARK  203  A    between atoms: _502  and  _503
REMARK  204  A    between atoms: _502  and  _505
REMARK  205  A    between atoms: _505  and  _506
REMARK  206  A    between atoms: _506  and  _507
REMARK  207  A    between atoms: _511  and  _512
REMARK  208  A    between atoms: _517  and  _519
REMARK  209  A    between atoms: _519  and  _520
REMARK  210  A    between atoms: _519  and  _522
REMARK  211  A    between atoms: _522  and  _523
REMARK  212  A    between atoms: _528  and  _529
REMARK  213  A    between atoms: _531  and  _533
REMARK  214  A    between atoms: _533  and  _534
REMARK  215  A    between atoms: _533  and  _536
REMARK  216  A    between atoms: _536  and  _537
REMARK  217  A    between atoms: _542  and  _544
REMARK  218  A    between atoms: _544  and  _545
REMARK  219  A    between atoms: _544  and  _547
REMARK  220  A    between atoms: _547  and  _548
REMARK  221  A    between atoms: _551  and  _553
REMARK  222  A    between atoms: _553  and  _554
REMARK  223  A    between atoms: _553  and  _556
REMARK  224  A    between atoms: _556  and  _557
REMARK  225  A    between atoms: _560  and  _562
REMARK  226  A    between atoms: _562  and  _563
REMARK  227  A    between atoms: _562  and  _565
REMARK  228  A    between atoms: _565  and  _566
REMARK  229  A    between atoms: _569  and  _571
REMARK  230  A    between atoms: _571  and  _572
REMARK  231  A    between atoms: _575  and  _577
REMARK  232  A    between atoms: _577  and  _578
REMARK  233  A    between atoms: _577  and  _580
REMARK  234  A    between atoms: _580  and  _581
REMARK  235  A    between atoms: _581  and  _582
REMARK  236  A    between atoms: _582  and  _583
REMARK  237  A    between atoms: _583  and  _584
REMARK                            x       y       z     vdW  Elec       q    Type
REMARK                         _______ _______ _______ _____ _____    ______ ____
ROOT
ATOM      1  O   HOH     1      -6.148 -11.131 -12.860  0.00  0.00    +0.000 OA
ENDROOT
TORSDOF 0
REMARK  Name = ../refined-set-2016/3qqa/3qqa_pocket.pdb
REMARK  237 active torsions:
REMARK  status: ('A' for Active; 'I' for Inactive)
REMARK    1  A    between atoms: _1  and  _3
REMARK    2  A    between atoms: _3  and  _4
REMARK    3  A    between atoms: _3  and  _6
REMARK    4  A    between atoms: _6  and  _7
REMARK    5  A    between atoms: _13  and  _15
REMARK    6  A    between atoms: _15  and  _16
REMARK    7  A    between atoms: _15  and  _18
REMARK    8  A    between atoms: _18  and  _19
REMARK    9  A    between atoms: _25  and  _27
REMARK   10  A    between atoms: _27  and  _28
REMARK   11  A    between atoms: _27  and  _30
REMARK   12  A    between atoms: _30  and  _31
REMARK   13  A    between atoms: _34  and  _36
REMARK   14  A    between atoms: _36  and  _37
REMARK   15  A    between atoms: _36  and  _39
REMARK   16  A    between atoms: _39  and  _40
REMARK   17  A    between atoms: _43  and  _45
REMARK   18  A    between atoms: _45  and  _46
REMARK   19  A    between atoms: _45  and  _48
REMARK   20  A    between atoms: _48  and  _49
REMARK   21  A    between atoms: _52  and  _54
REMARK   22  A    between atoms: _54  and  _55
REMARK   23  A    between atoms: _54  and  _57
REMARK   24  A    between atoms: _57  and  _58
REMARK   25  A    between atoms: _61  and  _63
REMARK   26  A    between atoms: _63  and  _64
REMARK   27  A    between atoms: _63  and  _66
REMARK   28  A    between atoms: _68  and  _70
REMARK   29  A    between atoms: _70  and  _71
REMARK   30  A    between atoms: _70  and  _73
REMARK   31  A    between atoms: _73  and  _74
REMARK   32  A    between atoms: _79  and  _81
REMARK   33  A    between atoms: _81  and  _82
REMARK   34  A    between atoms: _81  and  _84
REMARK   35  A    between atoms: _84  and  _85
REMARK   36  A    between atoms: _91  and  _93
REMARK   37  A    between atoms: _93  and  _94
REMARK   38  A    between atoms: _93  and  _96
REMARK   39  A    between atoms: _96  and  _97
REMARK   40  A    between atoms: _103  and  _105
REMARK   41  A    between atoms: _105  and  _106
REMARK   42  A    between atoms: _105  and  _108
REMARK   43  A    between atoms: _108  and  _109
REMARK   44  A    between atoms: _112  and  _114
REMARK   45  A    between atoms: _114  and  _115
REMARK   46  A    between atoms: _114  and  _117
REMARK   47  A    between atoms: _117  and  _118
REMARK   48  A    between atoms: _124  and  _126
REMARK   49  A    between atoms: _126  and  _127
REMARK   50  A    between atoms: _126  and  _129
REMARK   51  A    between atoms: _129  and  _130
REMARK   52  A    between atoms: _135  and  _137
REMARK   53  A    between atoms: _137  and  _138
REMARK   54  A    between atoms: _137  and  _140
REMARK   55  A    between atoms: _140  and  _141
REMARK   56  A    between atoms: _141  and  _142
REMARK   57  A    between atoms: _147  and  _149
REMARK   58  A    between atoms: _149  and  _150
REMARK   59  A    between atoms: _149  and  _152
REMARK   60  A    between atoms: _152  and  _153
REMARK   61  A    between atoms: _153  and  _154
REMARK   62  A    between atoms: _157  and  _159
REMARK   63  A    between atoms: _159  and  _160
REMARK   64  A    between atoms: _163  and  _165
REMARK   65  A    between atoms: _165  and  _166
REMARK   66  A    between atoms: _165  and  _168
REMARK   67  A    between atoms: _171  and  _173
REMARK   68  A    between atoms: _173  and  _174
REMARK   69  A    between atoms: _177  and  _179
REMARK   70  A    between atoms: _179  and  _180
REMARK   71  A    between atoms: _179  and  _182
REMARK   72  A    between atoms: _182  and  _183
REMARK   73  A    between atoms: _189  and  _191
REMARK   74  A    between atoms: _191  and  _192
REMARK   75  A    between atoms: _194  and  _196
REMARK   76  A    between atoms: _196  and  _197
REMARK   77  A    between atoms: _196  and  _199
REMARK   78  A    between atoms: _199  and  _200
REMARK   79  A    between atoms: _200  and  _201
REMARK   80  A    between atoms: _201  and  _202
REMARK   81  A    between atoms: _202  and  _203
REMARK   82  A    between atoms: _207  and  _209
REMARK   83  A    between atoms: _209  and  _210
REMARK   84  A    between atoms: _209  and  _212
REMARK   85  A    between atoms: _212  and  _213
REMARK   86  A    between atoms: _216  and  _218
REMARK   87  A    between atoms: _218  and  _219
REMARK   88  A    between atoms: _218  and  _221
REMARK   89  A    between atoms: _221  and  _222
REMARK   90  A    between atoms: _225  and  _227
REMARK   91  A    between atoms: _227  and  _228
REMARK   92  A    between atoms: _227  and  _230
REMARK   93  A    between atoms: _230  and  _231
REMARK   94  A    between atoms: _236  and  _237
REMARK   95  A    between atoms: _239  and  _241
REMARK   96  A    between atoms: _241  and  _242
REMARK   97  A    between atoms: _241  and  _244
REMARK   98  A    between atoms: _244  and  _245
REMARK   99  A    between atoms: _248  and  _250
REMARK  100  A    between atoms: _250  and  _251
REMARK  101  A    between atoms: _250  and  _253
REMARK  102  A    between atoms: _253  and  _254
REMARK  103  A    between atoms: _264  and  _266
REMARK  104  A    between atoms: _266  and  _267
REMARK  105  A    between atoms: _266  and  _269
REMARK  106  A    between atoms: _269  and  _270
REMARK  107  A    between atoms: _273  and  _275
REMARK  108  A    between atoms: _275  and  _276
REMARK  109  A    between atoms: _275  and  _278
REMARK  110  A    between atoms: _278  and  _279
REMARK  111  A    between atoms: _279  and  _280
REMARK  112  A    between atoms: _283  and  _285
REMARK  113  A    between atoms: _285  and  _286
REMARK  114  A    between atoms: _285  and  _288
REMARK  115  A    between atoms: _288  and  _289
REMARK  116  A    between atoms: _294  and  _296
REMARK  117  A    between atoms: _296  and  _297
REMARK  118  A    between atoms: _296  and  _299
REMARK  119  A    between atoms: _299  and  _300
REMARK  120  A    between atoms: _300  and  _301
REMARK  121  A    between atoms: _306  and  _308
REMARK  122  A    between atoms: _308  and  _309
REMARK  123  A    between atoms: _308  and  _311
REMARK  124  A    between atoms: _311  and  _312
REMARK  125  A    between atoms: _317  and  _319
REMARK  126  A    between atoms: _319  and  _320
REMARK  127  A    between atoms: _319  and  _322
REMARK  128  A    between atoms: _322  and  _323
REMARK  129  A    between atoms: _329  and  _331
REMARK  130  A    between atoms: _331  and  _332
REMARK  131  A    between atoms: _331  and  _334
REMARK  132  A    between atoms: _334  and  _335
REMARK  133  A    between atoms: _337  and  _339
REMARK  134  A    between atoms: _339  and  _340
REMARK  135  A    between atoms: _339  and  _342
REMARK  136  A    between atoms: _342  and  _343
REMARK  137  A    between atoms: _348  and  _349
REMARK  138  A    between atoms: _351  and  _353
REMARK  139  A    between atoms: _353  and  _354
REMARK  140  A    between atoms: _353  and  _356
REMARK  141  A    between atoms: _356  and  _357
REMARK  142  A    between atoms: _362  and  _364
REMARK  143  A    between atoms: _364  and  _365
REMARK  144  A    between atoms: _364  and  _367
REMARK  145  A    between atoms: _367  and  _368
REMARK  146  A    between atoms: _368  and  _369
REMARK  147  A    between atoms: _371  and  _373
REMARK  148  A    between atoms: _373  and  _374
REMARK  149  A    between atoms: _373  and  _376
REMARK  150  A    between atoms: _376  and  _377
REMARK  151  A    between atoms: _377  and  _378
REMARK  152  A    between atoms: _381  and  _383
REMARK  153  A    between atoms: _383  and  _384
REMARK  154  A    between atoms: _383  and  _386
REMARK  155  A    between atoms: _386  and  _387
REMARK  156  A    between atoms: _387  and  _388
REMARK  157  A    between atoms: _388  and  _389
REMARK  158  A    between atoms: _389  and  _390
REMARK  159  A    between atoms: _394  and  _396
REMARK  160  A    between atoms: _396  and  _397
REMARK  161  A    between atoms: _400  and  _402
REMARK  162  A    between atoms: _402  and  _403
REMARK  163  A    between atoms: _402  and  _405
REMARK  164  A    between atoms: _408  and  _410
REMARK  165  A    between atoms: _410  and  _411
REMARK  166  A    between atoms: _410  and  _413
REMARK  167  A    between atoms: _413  and  _414
REMARK  168  A    between atoms: _417  and  _419
REMARK  169  A    between atoms: _419  and  _420
REMARK  170  A    between atoms: _419  and  _422
REMARK  171  A    between atoms: _424  and  _426
REMARK  172  A    between atoms: _426  and  _427
REMARK  173  A    between atoms: _426  and  _429
REMARK  174  A    between atoms: _429  and  _430
REMARK  175  A    between atoms: _433  and  _435
REMARK  176  A    between atoms: _435  and  _436
REMARK  177  A    between atoms: _435  and  _438
REMARK  178  A    between atoms: _439  and  _440
REMARK  179  A    between atoms: _440  and  _441
REMARK  180  A    between atoms: _441  and  _442
REMARK  181  A    between atoms: _446  and  _448
REMARK  182  A    between atoms: _448  and  _449
REMARK  183  A    between atoms: _448  and  _451
REMARK  184  A    between atoms: _451  and  _452
REMARK  185  A    between atoms: _452  and  _453
REMARK  186  A    between atoms: _456  and  _458
REMARK  187  A    between atoms: _458  and  _459
REMARK  188  A    between atoms: _458  and  _461
REMARK  189  A    between atoms: _461  and  _462
REMARK  190  A    between atoms: _467  and  _469
REMARK  191  A    between atoms: _469  and  _470
REMARK  192  A    between atoms: _469  and  _472
REMARK  193  A    between atoms: _472  and  _473
REMARK  194  A    between atoms: _478  and  _480
REMARK  195  A    between atoms: _480  and  _481
REMARK  196  A    between atoms: _480  and  _483
REMARK  197  A    between atoms: _486  and  _488
REMARK  198  A    between atoms: _488  and  _489
REMARK  199  A    between atoms: _488  and  _491
REMARK  200  A    between atoms: _491  and  _492
REMARK  201  A    between atoms: _497  and  _498
REMARK  202  A    between atoms: _500  and  _502
REMARK  203  A    between atoms: _502  and  _503
REMARK  204  A    between atoms: _502  and  _505
REMARK  205  A    between atoms: _505  and  _506
REMARK  206  A    between atoms: _506  and  _507
REMARK  207  A    between atoms: _511  and  _512
REMARK  208  A    between atoms: _517  and  _519
REMARK  209  A    between atoms: _519  and  _520
REMARK  210  A    between atoms: _519  and  _522
REMARK  211  A    between atoms: _522  and  _523
REMARK  212  A    between atoms: _528  and  _529
REMARK  213  A    between atoms: _531  and  _533
REMARK  214  A    between atoms: _533  and  _534
REMARK  215  A    between atoms: _533  and  _536
REMARK  216  A    between atoms: _536  and  _537
REMARK  217  A    between atoms: _542  and  _544
REMARK  218  A    between atoms: _544  and  _545
REMARK  219  A    between atoms: _544  and  _547
REMARK  220  A    between atoms: _547  and  _548
REMARK  221  A    between atoms: _551  and  _553
REMARK  222  A    between atoms: _553  and  _554
REMARK  223  A    between atoms: _553  and  _556
REMARK  224  A    between atoms: _556  and  _557
REMARK  225  A    between atoms: _560  and  _562
REMARK  226  A    between atoms: _562  and  _563
REMARK  227  A    between atoms: _562  and  _565
REMARK  228  A    between atoms: _565  and  _566
REMARK  229  A    between atoms: _569  and  _571
REMARK  230  A    between atoms: _571  and  _572
REMARK  231  A    between atoms: _575  and  _577
REMARK  232  A    between atoms: _577  and  _578
REMARK  233  A    between atoms: _577  and  _580
REMARK  234  A    between atoms: _580  and  _581
REMARK  235  A    between atoms: _581  and  _582
REMARK  236  A    between atoms: _582  and  _583
REMARK  237  A    between atoms: _583  and  _584
REMARK                            x       y       z     vdW  Elec       q    Type
REMARK                         _______ _______ _______ _____ _____    ______ ____
ROOT
ATOM      1  O   HOH     1     -11.745 -21.935 -17.609  0.00  0.00    +0.000 OA
ENDROOT
TORSDOF 0
REMARK  Name = ../refined-set-2016/3qqa/3qqa_pocket.pdb
REMARK  237 active torsions:
REMARK  status: ('A' for Active; 'I' for Inactive)
REMARK    1  A    between atoms: _1  and  _3
REMARK    2  A    between atoms: _3  and  _4
REMARK    3  A    between atoms: _3  and  _6
REMARK    4  A    between atoms: _6  and  _7
REMARK    5  A    between atoms: _13  and  _15
REMARK    6  A    between atoms: _15  and  _16
REMARK    7  A    between atoms: _15  and  _18
REMARK    8  A    between atoms: _18  and  _19
REMARK    9  A    between atoms: _25  and  _27
REMARK   10  A    between atoms: _27  and  _28
REMARK   11  A    between atoms: _27  and  _30
REMARK   12  A    between atoms: _30  and  _31
REMARK   13  A    between atoms: _34  and  _36
REMARK   14  A    between atoms: _36  and  _37
REMARK   15  A    between atoms: _36  and  _39
REMARK   16  A    between atoms: _39  and  _40
REMARK   17  A    between atoms: _43  and  _45
REMARK   18  A    between atoms: _45  and  _46
REMARK   19  A    between atoms: _45  and  _48
REMARK   20  A    between atoms: _48  and  _49
REMARK   21  A    between atoms: _52  and  _54
REMARK   22  A    between atoms: _54  and  _55
REMARK   23  A    between atoms: _54  and  _57
REMARK   24  A    between atoms: _57  and  _58
REMARK   25  A    between atoms: _61  and  _63
REMARK   26  A    between atoms: _63  and  _64
REMARK   27  A    between atoms: _63  and  _66
REMARK   28  A    between atoms: _68  and  _70
REMARK   29  A    between atoms: _70  and  _71
REMARK   30  A    between atoms: _70  and  _73
REMARK   31  A    between atoms: _73  and  _74
REMARK   32  A    between atoms: _79  and  _81
REMARK   33  A    between atoms: _81  and  _82
REMARK   34  A    between atoms: _81  and  _84
REMARK   35  A    between atoms: _84  and  _85
REMARK   36  A    between atoms: _91  and  _93
REMARK   37  A    between atoms: _93  and  _94
REMARK   38  A    between atoms: _93  and  _96
REMARK   39  A    between atoms: _96  and  _97
REMARK   40  A    between atoms: _103  and  _105
REMARK   41  A    between atoms: _105  and  _106
REMARK   42  A    between atoms: _105  and  _108
REMARK   43  A    between atoms: _108  and  _109
REMARK   44  A    between atoms: _112  and  _114
REMARK   45  A    between atoms: _114  and  _115
REMARK   46  A    between atoms: _114  and  _117
REMARK   47  A    between atoms: _117  and  _118
REMARK   48  A    between atoms: _124  and  _126
REMARK   49  A    between atoms: _126  and  _127
REMARK   50  A    between atoms: _126  and  _129
REMARK   51  A    between atoms: _129  and  _130
REMARK   52  A    between atoms: _135  and  _137
REMARK   53  A    between atoms: _137  and  _138
REMARK   54  A    between atoms: _137  and  _140
REMARK   55  A    between atoms: _140  and  _141
REMARK   56  A    between atoms: _141  and  _142
REMARK   57  A    between atoms: _147  and  _149
REMARK   58  A    between atoms: _149  and  _150
REMARK   59  A    between atoms: _149  and  _152
REMARK   60  A    between atoms: _152  and  _153
REMARK   61  A    between atoms: _153  and  _154
REMARK   62  A    between atoms: _157  and  _159
REMARK   63  A    between atoms: _159  and  _160
REMARK   64  A    between atoms: _163  and  _165
REMARK   65  A    between atoms: _165  and  _166
REMARK   66  A    between atoms: _165  and  _168
REMARK   67  A    between atoms: _171  and  _173
REMARK   68  A    between atoms: _173  and  _174
REMARK   69  A    between atoms: _177  and  _179
REMARK   70  A    between atoms: _179  and  _180
REMARK   71  A    between atoms: _179  and  _182
REMARK   72  A    between atoms: _182  and  _183
REMARK   73  A    between atoms: _189  and  _191
REMARK   74  A    between atoms: _191  and  _192
REMARK   75  A    between atoms: _194  and  _196
REMARK   76  A    between atoms: _196  and  _197
REMARK   77  A    between atoms: _196  and  _199
REMARK   78  A    between atoms: _199  and  _200
REMARK   79  A    between atoms: _200  and  _201
REMARK   80  A    between atoms: _201  and  _202
REMARK   81  A    between atoms: _202  and  _203
REMARK   82  A    between atoms: _207  and  _209
REMARK   83  A    between atoms: _209  and  _210
REMARK   84  A    between atoms: _209  and  _212
REMARK   85  A    between atoms: _212  and  _213
REMARK   86  A    between atoms: _216  and  _218
REMARK   87  A    between atoms: _218  and  _219
REMARK   88  A    between atoms: _218  and  _221
REMARK   89  A    between atoms: _221  and  _222
REMARK   90  A    between atoms: _225  and  _227
REMARK   91  A    between atoms: _227  and  _228
REMARK   92  A    between atoms: _227  and  _230
REMARK   93  A    between atoms: _230  and  _231
REMARK   94  A    between atoms: _236  and  _237
REMARK   95  A    between atoms: _239  and  _241
REMARK   96  A    between atoms: _241  and  _242
REMARK   97  A    between atoms: _241  and  _244
REMARK   98  A    between atoms: _244  and  _245
REMARK   99  A    between atoms: _248  and  _250
REMARK  100  A    between atoms: _250  and  _251
REMARK  101  A    between atoms: _250  and  _253
REMARK  102  A    between atoms: _253  and  _254
REMARK  103  A    between atoms: _264  and  _266
REMARK  104  A    between atoms: _266  and  _267
REMARK  105  A    between atoms: _266  and  _269
REMARK  106  A    between atoms: _269  and  _270
REMARK  107  A    between atoms: _273  and  _275
REMARK  108  A    between atoms: _275  and  _276
REMARK  109  A    between atoms: _275  and  _278
REMARK  110  A    between atoms: _278  and  _279
REMARK  111  A    between atoms: _279  and  _280
REMARK  112  A    between atoms: _283  and  _285
REMARK  113  A    between atoms: _285  and  _286
REMARK  114  A    between atoms: _285  and  _288
REMARK  115  A    between atoms: _288  and  _289
REMARK  116  A    between atoms: _294  and  _296
REMARK  117  A    between atoms: _296  and  _297
REMARK  118  A    between atoms: _296  and  _299
REMARK  119  A    between atoms: _299  and  _300
REMARK  120  A    between atoms: _300  and  _301
REMARK  121  A    between atoms: _306  and  _308
REMARK  122  A    between atoms: _308  and  _309
REMARK  123  A    between atoms: _308  and  _311
REMARK  124  A    between atoms: _311  and  _312
REMARK  125  A    between atoms: _317  and  _319
REMARK  126  A    between atoms: _319  and  _320
REMARK  127  A    between atoms: _319  and  _322
REMARK  128  A    between atoms: _322  and  _323
REMARK  129  A    between atoms: _329  and  _331
REMARK  130  A    between atoms: _331  and  _332
REMARK  131  A    between atoms: _331  and  _334
REMARK  132  A    between atoms: _334  and  _335
REMARK  133  A    between atoms: _337  and  _339
REMARK  134  A    between atoms: _339  and  _340
REMARK  135  A    between atoms: _339  and  _342
REMARK  136  A    between atoms: _342  and  _343
REMARK  137  A    between atoms: _348  and  _349
REMARK  138  A    between atoms: _351  and  _353
REMARK  139  A    between atoms: _353  and  _354
REMARK  140  A    between atoms: _353  and  _356
REMARK  141  A    between atoms: _356  and  _357
REMARK  142  A    between atoms: _362  and  _364
REMARK  143  A    between atoms: _364  and  _365
REMARK  144  A    between atoms: _364  and  _367
REMARK  145  A    between atoms: _367  and  _368
REMARK  146  A    between atoms: _368  and  _369
REMARK  147  A    between atoms: _371  and  _373
REMARK  148  A    between atoms: _373  and  _374
REMARK  149  A    between atoms: _373  and  _376
REMARK  150  A    between atoms: _376  and  _377
REMARK  151  A    between atoms: _377  and  _378
REMARK  152  A    between atoms: _381  and  _383
REMARK  153  A    between atoms: _383  and  _384
REMARK  154  A    between atoms: _383  and  _386
REMARK  155  A    between atoms: _386  and  _387
REMARK  156  A    between atoms: _387  and  _388
REMARK  157  A    between atoms: _388  and  _389
REMARK  158  A    between atoms: _389  and  _390
REMARK  159  A    between atoms: _394  and  _396
REMARK  160  A    between atoms: _396  and  _397
REMARK  161  A    between atoms: _400  and  _402
REMARK  162  A    between atoms: _402  and  _403
REMARK  163  A    between atoms: _402  and  _405
REMARK  164  A    between atoms: _408  and  _410
REMARK  165  A    between atoms: _410  and  _411
REMARK  166  A    between atoms: _410  and  _413
REMARK  167  A    between atoms: _413  and  _414
REMARK  168  A    between atoms: _417  and  _419
REMARK  169  A    between atoms: _419  and  _420
REMARK  170  A    between atoms: _419  and  _422
REMARK  171  A    between atoms: _424  and  _426
REMARK  172  A    between atoms: _426  and  _427
REMARK  173  A    between atoms: _426  and  _429
REMARK  174  A    between atoms: _429  and  _430
REMARK  175  A    between atoms: _433  and  _435
REMARK  176  A    between atoms: _435  and  _436
REMARK  177  A    between atoms: _435  and  _438
REMARK  178  A    between atoms: _439  and  _440
REMARK  179  A    between atoms: _440  and  _441
REMARK  180  A    between atoms: _441  and  _442
REMARK  181  A    between atoms: _446  and  _448
REMARK  182  A    between atoms: _448  and  _449
REMARK  183  A    between atoms: _448  and  _451
REMARK  184  A    between atoms: _451  and  _452
REMARK  185  A    between atoms: _452  and  _453
REMARK  186  A    between atoms: _456  and  _458
REMARK  187  A    between atoms: _458  and  _459
REMARK  188  A    between atoms: _458  and  _461
REMARK  189  A    between atoms: _461  and  _462
REMARK  190  A    between atoms: _467  and  _469
REMARK  191  A    between atoms: _469  and  _470
REMARK  192  A    between atoms: _469  and  _472
REMARK  193  A    between atoms: _472  and  _473
REMARK  194  A    between atoms: _478  and  _480
REMARK  195  A    between atoms: _480  and  _481
REMARK  196  A    between atoms: _480  and  _483
REMARK  197  A    between atoms: _486  and  _488
REMARK  198  A    between atoms: _488  and  _489
REMARK  199  A    between atoms: _488  and  _491
REMARK  200  A    between atoms: _491  and  _492
REMARK  201  A    between atoms: _497  and  _498
REMARK  202  A    between atoms: _500  and  _502
REMARK  203  A    between atoms: _502  and  _503
REMARK  204  A    between atoms: _502  and  _505
REMARK  205  A    between atoms: _505  and  _506
REMARK  206  A    between atoms: _506  and  _507
REMARK  207  A    between atoms: _511  and  _512
REMARK  208  A    between atoms: _517  and  _519
REMARK  209  A    between atoms: _519  and  _520
REMARK  210  A    between atoms: _519  and  _522
REMARK  211  A    between atoms: _522  and  _523
REMARK  212  A    between atoms: _528  and  _529
REMARK  213  A    between atoms: _531  and  _533
REMARK  214  A    between atoms: _533  and  _534
REMARK  215  A    between atoms: _533  and  _536
REMARK  216  A    between atoms: _536  and  _537
REMARK  217  A    between atoms: _542  and  _544
REMARK  218  A    between atoms: _544  and  _545
REMARK  219  A    between atoms: _544  and  _547
REMARK  220  A    between atoms: _547  and  _548
REMARK  221  A    between atoms: _551  and  _553
REMARK  222  A    between atoms: _553  and  _554
REMARK  223  A    between atoms: _553  and  _556
REMARK  224  A    between atoms: _556  and  _557
REMARK  225  A    between atoms: _560  and  _562
REMARK  226  A    between atoms: _562  and  _563
REMARK  227  A    between atoms: _562  and  _565
REMARK  228  A    between atoms: _565  and  _566
REMARK  229  A    between atoms: _569  and  _571
REMARK  230  A    between atoms: _571  and  _572
REMARK  231  A    between atoms: _575  and  _577
REMARK  232  A    between atoms: _577  and  _578
REMARK  233  A    between atoms: _577  and  _580
REMARK  234  A    between atoms: _580  and  _581
REMARK  235  A    between atoms: _581  and  _582
REMARK  236  A    between atoms: _582  and  _583
REMARK  237  A    between atoms: _583  and  _584
REMARK                            x       y       z     vdW  Elec       q    Type
REMARK                         _______ _______ _______ _____ _____    ______ ____
ROOT
ATOM      1  O   HOH     1     -10.583 -20.424 -13.791  0.00  0.00    +0.000 OA
ENDROOT
TORSDOF 0
REMARK  Name = ../refined-set-2016/3qqa/3qqa_pocket.pdb
REMARK  237 active torsions:
REMARK  status: ('A' for Active; 'I' for Inactive)
REMARK    1  A    between atoms: _1  and  _3
REMARK    2  A    between atoms: _3  and  _4
REMARK    3  A    between atoms: _3  and  _6
REMARK    4  A    between atoms: _6  and  _7
REMARK    5  A    between atoms: _13  and  _15
REMARK    6  A    between atoms: _15  and  _16
REMARK    7  A    between atoms: _15  and  _18
REMARK    8  A    between atoms: _18  and  _19
REMARK    9  A    between atoms: _25  and  _27
REMARK   10  A    between atoms: _27  and  _28
REMARK   11  A    between atoms: _27  and  _30
REMARK   12  A    between atoms: _30  and  _31
REMARK   13  A    between atoms: _34  and  _36
REMARK   14  A    between atoms: _36  and  _37
REMARK   15  A    between atoms: _36  and  _39
REMARK   16  A    between atoms: _39  and  _40
REMARK   17  A    between atoms: _43  and  _45
REMARK   18  A    between atoms: _45  and  _46
REMARK   19  A    between atoms: _45  and  _48
REMARK   20  A    between atoms: _48  and  _49
REMARK   21  A    between atoms: _52  and  _54
REMARK   22  A    between atoms: _54  and  _55
REMARK   23  A    between atoms: _54  and  _57
REMARK   24  A    between atoms: _57  and  _58
REMARK   25  A    between atoms: _61  and  _63
REMARK   26  A    between atoms: _63  and  _64
REMARK   27  A    between atoms: _63  and  _66
REMARK   28  A    between atoms: _68  and  _70
REMARK   29  A    between atoms: _70  and  _71
REMARK   30  A    between atoms: _70  and  _73
REMARK   31  A    between atoms: _73  and  _74
REMARK   32  A    between atoms: _79  and  _81
REMARK   33  A    between atoms: _81  and  _82
REMARK   34  A    between atoms: _81  and  _84
REMARK   35  A    between atoms: _84  and  _85
REMARK   36  A    between atoms: _91  and  _93
REMARK   37  A    between atoms: _93  and  _94
REMARK   38  A    between atoms: _93  and  _96
REMARK   39  A    between atoms: _96  and  _97
REMARK   40  A    between atoms: _103  and  _105
REMARK   41  A    between atoms: _105  and  _106
REMARK   42  A    between atoms: _105  and  _108
REMARK   43  A    between atoms: _108  and  _109
REMARK   44  A    between atoms: _112  and  _114
REMARK   45  A    between atoms: _114  and  _115
REMARK   46  A    between atoms: _114  and  _117
REMARK   47  A    between atoms: _117  and  _118
REMARK   48  A    between atoms: _124  and  _126
REMARK   49  A    between atoms: _126  and  _127
REMARK   50  A    between atoms: _126  and  _129
REMARK   51  A    between atoms: _129  and  _130
REMARK   52  A    between atoms: _135  and  _137
REMARK   53  A    between atoms: _137  and  _138
REMARK   54  A    between atoms: _137  and  _140
REMARK   55  A    between atoms: _140  and  _141
REMARK   56  A    between atoms: _141  and  _142
REMARK   57  A    between atoms: _147  and  _149
REMARK   58  A    between atoms: _149  and  _150
REMARK   59  A    between atoms: _149  and  _152
REMARK   60  A    between atoms: _152  and  _153
REMARK   61  A    between atoms: _153  and  _154
REMARK   62  A    between atoms: _157  and  _159
REMARK   63  A    between atoms: _159  and  _160
REMARK   64  A    between atoms: _163  and  _165
REMARK   65  A    between atoms: _165  and  _166
REMARK   66  A    between atoms: _165  and  _168
REMARK   67  A    between atoms: _171  and  _173
REMARK   68  A    between atoms: _173  and  _174
REMARK   69  A    between atoms: _177  and  _179
REMARK   70  A    between atoms: _179  and  _180
REMARK   71  A    between atoms: _179  and  _182
REMARK   72  A    between atoms: _182  and  _183
REMARK   73  A    between atoms: _189  and  _191
REMARK   74  A    between atoms: _191  and  _192
REMARK   75  A    between atoms: _194  and  _196
REMARK   76  A    between atoms: _196  and  _197
REMARK   77  A    between atoms: _196  and  _199
REMARK   78  A    between atoms: _199  and  _200
REMARK   79  A    between atoms: _200  and  _201
REMARK   80  A    between atoms: _201  and  _202
REMARK   81  A    between atoms: _202  and  _203
REMARK   82  A    between atoms: _207  and  _209
REMARK   83  A    between atoms: _209  and  _210
REMARK   84  A    between atoms: _209  and  _212
REMARK   85  A    between atoms: _212  and  _213
REMARK   86  A    between atoms: _216  and  _218
REMARK   87  A    between atoms: _218  and  _219
REMARK   88  A    between atoms: _218  and  _221
REMARK   89  A    between atoms: _221  and  _222
REMARK   90  A    between atoms: _225  and  _227
REMARK   91  A    between atoms: _227  and  _228
REMARK   92  A    between atoms: _227  and  _230
REMARK   93  A    between atoms: _230  and  _231
REMARK   94  A    between atoms: _236  and  _237
REMARK   95  A    between atoms: _239  and  _241
REMARK   96  A    between atoms: _241  and  _242
REMARK   97  A    between atoms: _241  and  _244
REMARK   98  A    between atoms: _244  and  _245
REMARK   99  A    between atoms: _248  and  _250
REMARK  100  A    between atoms: _250  and  _251
REMARK  101  A    between atoms: _250  and  _253
REMARK  102  A    between atoms: _253  and  _254
REMARK  103  A    between atoms: _264  and  _266
REMARK  104  A    between atoms: _266  and  _267
REMARK  105  A    between atoms: _266  and  _269
REMARK  106  A    between atoms: _269  and  _270
REMARK  107  A    between atoms: _273  and  _275
REMARK  108  A    between atoms: _275  and  _276
REMARK  109  A    between atoms: _275  and  _278
REMARK  110  A    between atoms: _278  and  _279
REMARK  111  A    between atoms: _279  and  _280
REMARK  112  A    between atoms: _283  and  _285
REMARK  113  A    between atoms: _285  and  _286
REMARK  114  A    between atoms: _285  and  _288
REMARK  115  A    between atoms: _288  and  _289
REMARK  116  A    between atoms: _294  and  _296
REMARK  117  A    between atoms: _296  and  _297
REMARK  118  A    between atoms: _296  and  _299
REMARK  119  A    between atoms: _299  and  _300
REMARK  120  A    between atoms: _300  and  _301
REMARK  121  A    between atoms: _306  and  _308
REMARK  122  A    between atoms: _308  and  _309
REMARK  123  A    between atoms: _308  and  _311
REMARK  124  A    between atoms: _311  and  _312
REMARK  125  A    between atoms: _317  and  _319
REMARK  126  A    between atoms: _319  and  _320
REMARK  127  A    between atoms: _319  and  _322
REMARK  128  A    between atoms: _322  and  _323
REMARK  129  A    between atoms: _329  and  _331
REMARK  130  A    between atoms: _331  and  _332
REMARK  131  A    between atoms: _331  and  _334
REMARK  132  A    between atoms: _334  and  _335
REMARK  133  A    between atoms: _337  and  _339
REMARK  134  A    between atoms: _339  and  _340
REMARK  135  A    between atoms: _339  and  _342
REMARK  136  A    between atoms: _342  and  _343
REMARK  137  A    between atoms: _348  and  _349
REMARK  138  A    between atoms: _351  and  _353
REMARK  139  A    between atoms: _353  and  _354
REMARK  140  A    between atoms: _353  and  _356
REMARK  141  A    between atoms: _356  and  _357
REMARK  142  A    between atoms: _362  and  _364
REMARK  143  A    between atoms: _364  and  _365
REMARK  144  A    between atoms: _364  and  _367
REMARK  145  A    between atoms: _367  and  _368
REMARK  146  A    between atoms: _368  and  _369
REMARK  147  A    between atoms: _371  and  _373
REMARK  148  A    between atoms: _373  and  _374
REMARK  149  A    between atoms: _373  and  _376
REMARK  150  A    between atoms: _376  and  _377
REMARK  151  A    between atoms: _377  and  _378
REMARK  152  A    between atoms: _381  and  _383
REMARK  153  A    between atoms: _383  and  _384
REMARK  154  A    between atoms: _383  and  _386
REMARK  155  A    between atoms: _386  and  _387
REMARK  156  A    between atoms: _387  and  _388
REMARK  157  A    between atoms: _388  and  _389
REMARK  158  A    between atoms: _389  and  _390
REMARK  159  A    between atoms: _394  and  _396
REMARK  160  A    between atoms: _396  and  _397
REMARK  161  A    between atoms: _400  and  _402
REMARK  162  A    between atoms: _402  and  _403
REMARK  163  A    between atoms: _402  and  _405
REMARK  164  A    between atoms: _408  and  _410
REMARK  165  A    between atoms: _410  and  _411
REMARK  166  A    between atoms: _410  and  _413
REMARK  167  A    between atoms: _413  and  _414
REMARK  168  A    between atoms: _417  and  _419
REMARK  169  A    between atoms: _419  and  _420
REMARK  170  A    between atoms: _419  and  _422
REMARK  171  A    between atoms: _424  and  _426
REMARK  172  A    between atoms: _426  and  _427
REMARK  173  A    between atoms: _426  and  _429
REMARK  174  A    between atoms: _429  and  _430
REMARK  175  A    between atoms: _433  and  _435
REMARK  176  A    between atoms: _435  and  _436
REMARK  177  A    between atoms: _435  and  _438
REMARK  178  A    between atoms: _439  and  _440
REMARK  179  A    between atoms: _440  and  _441
REMARK  180  A    between atoms: _441  and  _442
REMARK  181  A    between atoms: _446  and  _448
REMARK  182  A    between atoms: _448  and  _449
REMARK  183  A    between atoms: _448  and  _451
REMARK  184  A    between atoms: _451  and  _452
REMARK  185  A    between atoms: _452  and  _453
REMARK  186  A    between atoms: _456  and  _458
REMARK  187  A    between atoms: _458  and  _459
REMARK  188  A    between atoms: _458  and  _461
REMARK  189  A    between atoms: _461  and  _462
REMARK  190  A    between atoms: _467  and  _469
REMARK  191  A    between atoms: _469  and  _470
REMARK  192  A    between atoms: _469  and  _472
REMARK  193  A    between atoms: _472  and  _473
REMARK  194  A    between atoms: _478  and  _480
REMARK  195  A    between atoms: _480  and  _481
REMARK  196  A    between atoms: _480  and  _483
REMARK  197  A    between atoms: _486  and  _488
REMARK  198  A    between atoms: _488  and  _489
REMARK  199  A    between atoms: _488  and  _491
REMARK  200  A    between atoms: _491  and  _492
REMARK  201  A    between atoms: _497  and  _498
REMARK  202  A    between atoms: _500  and  _502
REMARK  203  A    between atoms: _502  and  _503
REMARK  204  A    between atoms: _502  and  _505
REMARK  205  A    between atoms: _505  and  _506
REMARK  206  A    between atoms: _506  and  _507
REMARK  207  A    between atoms: _511  and  _512
REMARK  208  A    between atoms: _517  and  _519
REMARK  209  A    between atoms: _519  and  _520
REMARK  210  A    between atoms: _519  and  _522
REMARK  211  A    between atoms: _522  and  _523
REMARK  212  A    between atoms: _528  and  _529
REMARK  213  A    between atoms: _531  and  _533
REMARK  214  A    between atoms: _533  and  _534
REMARK  215  A    between atoms: _533  and  _536
REMARK  216  A    between atoms: _536  and  _537
REMARK  217  A    between atoms: _542  and  _544
REMARK  218  A    between atoms: _544  and  _545
REMARK  219  A    between atoms: _544  and  _547
REMARK  220  A    between atoms: _547  and  _548
REMARK  221  A    between atoms: _551  and  _553
REMARK  222  A    between atoms: _553  and  _554
REMARK  223  A    between atoms: _553  and  _556
REMARK  224  A    between atoms: _556  and  _557
REMARK  225  A    between atoms: _560  and  _562
REMARK  226  A    between atoms: _562  and  _563
REMARK  227  A    between atoms: _562  and  _565
REMARK  228  A    between atoms: _565  and  _566
REMARK  229  A    between atoms: _569  and  _571
REMARK  230  A    between atoms: _571  and  _572
REMARK  231  A    between atoms: _575  and  _577
REMARK  232  A    between atoms: _577  and  _578
REMARK  233  A    between atoms: _577  and  _580
REMARK  234  A    between atoms: _580  and  _581
REMARK  235  A    between atoms: _581  and  _582
REMARK  236  A    between atoms: _582  and  _583
REMARK  237  A    between atoms: _583  and  _584
REMARK                            x       y       z     vdW  Elec       q    Type
REMARK                         _______ _______ _______ _____ _____    ______ ____
ROOT
ATOM      1  O   HOH     1      -4.510 -20.448 -17.186  0.00  0.00    +0.000 OA
ENDROOT
TORSDOF 0
REMARK  Name = ../refined-set-2016/3qqa/3qqa_pocket.pdb
REMARK  237 active torsions:
REMARK  status: ('A' for Active; 'I' for Inactive)
REMARK    1  A    between atoms: _1  and  _3
REMARK    2  A    between atoms: _3  and  _4
REMARK    3  A    between atoms: _3  and  _6
REMARK    4  A    between atoms: _6  and  _7
REMARK    5  A    between atoms: _13  and  _15
REMARK    6  A    between atoms: _15  and  _16
REMARK    7  A    between atoms: _15  and  _18
REMARK    8  A    between atoms: _18  and  _19
REMARK    9  A    between atoms: _25  and  _27
REMARK   10  A    between atoms: _27  and  _28
REMARK   11  A    between atoms: _27  and  _30
REMARK   12  A    between atoms: _30  and  _31
REMARK   13  A    between atoms: _34  and  _36
REMARK   14  A    between atoms: _36  and  _37
REMARK   15  A    between atoms: _36  and  _39
REMARK   16  A    between atoms: _39  and  _40
REMARK   17  A    between atoms: _43  and  _45
REMARK   18  A    between atoms: _45  and  _46
REMARK   19  A    between atoms: _45  and  _48
REMARK   20  A    between atoms: _48  and  _49
REMARK   21  A    between atoms: _52  and  _54
REMARK   22  A    between atoms: _54  and  _55
REMARK   23  A    between atoms: _54  and  _57
REMARK   24  A    between atoms: _57  and  _58
REMARK   25  A    between atoms: _61  and  _63
REMARK   26  A    between atoms: _63  and  _64
REMARK   27  A    between atoms: _63  and  _66
REMARK   28  A    between atoms: _68  and  _70
REMARK   29  A    between atoms: _70  and  _71
REMARK   30  A    between atoms: _70  and  _73
REMARK   31  A    between atoms: _73  and  _74
REMARK   32  A    between atoms: _79  and  _81
REMARK   33  A    between atoms: _81  and  _82
REMARK   34  A    between atoms: _81  and  _84
REMARK   35  A    between atoms: _84  and  _85
REMARK   36  A    between atoms: _91  and  _93
REMARK   37  A    between atoms: _93  and  _94
REMARK   38  A    between atoms: _93  and  _96
REMARK   39  A    between atoms: _96  and  _97
REMARK   40  A    between atoms: _103  and  _105
REMARK   41  A    between atoms: _105  and  _106
REMARK   42  A    between atoms: _105  and  _108
REMARK   43  A    between atoms: _108  and  _109
REMARK   44  A    between atoms: _112  and  _114
REMARK   45  A    between atoms: _114  and  _115
REMARK   46  A    between atoms: _114  and  _117
REMARK   47  A    between atoms: _117  and  _118
REMARK   48  A    between atoms: _124  and  _126
REMARK   49  A    between atoms: _126  and  _127
REMARK   50  A    between atoms: _126  and  _129
REMARK   51  A    between atoms: _129  and  _130
REMARK   52  A    between atoms: _135  and  _137
REMARK   53  A    between atoms: _137  and  _138
REMARK   54  A    between atoms: _137  and  _140
REMARK   55  A    between atoms: _140  and  _141
REMARK   56  A    between atoms: _141  and  _142
REMARK   57  A    between atoms: _147  and  _149
REMARK   58  A    between atoms: _149  and  _150
REMARK   59  A    between atoms: _149  and  _152
REMARK   60  A    between atoms: _152  and  _153
REMARK   61  A    between atoms: _153  and  _154
REMARK   62  A    between atoms: _157  and  _159
REMARK   63  A    between atoms: _159  and  _160
REMARK   64  A    between atoms: _163  and  _165
REMARK   65  A    between atoms: _165  and  _166
REMARK   66  A    between atoms: _165  and  _168
REMARK   67  A    between atoms: _171  and  _173
REMARK   68  A    between atoms: _173  and  _174
REMARK   69  A    between atoms: _177  and  _179
REMARK   70  A    between atoms: _179  and  _180
REMARK   71  A    between atoms: _179  and  _182
REMARK   72  A    between atoms: _182  and  _183
REMARK   73  A    between atoms: _189  and  _191
REMARK   74  A    between atoms: _191  and  _192
REMARK   75  A    between atoms: _194  and  _196
REMARK   76  A    between atoms: _196  and  _197
REMARK   77  A    between atoms: _196  and  _199
REMARK   78  A    between atoms: _199  and  _200
REMARK   79  A    between atoms: _200  and  _201
REMARK   80  A    between atoms: _201  and  _202
REMARK   81  A    between atoms: _202  and  _203
REMARK   82  A    between atoms: _207  and  _209
REMARK   83  A    between atoms: _209  and  _210
REMARK   84  A    between atoms: _209  and  _212
REMARK   85  A    between atoms: _212  and  _213
REMARK   86  A    between atoms: _216  and  _218
REMARK   87  A    between atoms: _218  and  _219
REMARK   88  A    between atoms: _218  and  _221
REMARK   89  A    between atoms: _221  and  _222
REMARK   90  A    between atoms: _225  and  _227
REMARK   91  A    between atoms: _227  and  _228
REMARK   92  A    between atoms: _227  and  _230
REMARK   93  A    between atoms: _230  and  _231
REMARK   94  A    between atoms: _236  and  _237
REMARK   95  A    between atoms: _239  and  _241
REMARK   96  A    between atoms: _241  and  _242
REMARK   97  A    between atoms: _241  and  _244
REMARK   98  A    between atoms: _244  and  _245
REMARK   99  A    between atoms: _248  and  _250
REMARK  100  A    between atoms: _250  and  _251
REMARK  101  A    between atoms: _250  and  _253
REMARK  102  A    between atoms: _253  and  _254
REMARK  103  A    between atoms: _264  and  _266
REMARK  104  A    between atoms: _266  and  _267
REMARK  105  A    between atoms: _266  and  _269
REMARK  106  A    between atoms: _269  and  _270
REMARK  107  A    between atoms: _273  and  _275
REMARK  108  A    between atoms: _275  and  _276
REMARK  109  A    between atoms: _275  and  _278
REMARK  110  A    between atoms: _278  and  _279
REMARK  111  A    between atoms: _279  and  _280
REMARK  112  A    between atoms: _283  and  _285
REMARK  113  A    between atoms: _285  and  _286
REMARK  114  A    between atoms: _285  and  _288
REMARK  115  A    between atoms: _288  and  _289
REMARK  116  A    between atoms: _294  and  _296
REMARK  117  A    between atoms: _296  and  _297
REMARK  118  A    between atoms: _296  and  _299
REMARK  119  A    between atoms: _299  and  _300
REMARK  120  A    between atoms: _300  and  _301
REMARK  121  A    between atoms: _306  and  _308
REMARK  122  A    between atoms: _308  and  _309
REMARK  123  A    between atoms: _308  and  _311
REMARK  124  A    between atoms: _311  and  _312
REMARK  125  A    between atoms: _317  and  _319
REMARK  126  A    between atoms: _319  and  _320
REMARK  127  A    between atoms: _319  and  _322
REMARK  128  A    between atoms: _322  and  _323
REMARK  129  A    between atoms: _329  and  _331
REMARK  130  A    between atoms: _331  and  _332
REMARK  131  A    between atoms: _331  and  _334
REMARK  132  A    between atoms: _334  and  _335
REMARK  133  A    between atoms: _337  and  _339
REMARK  134  A    between atoms: _339  and  _340
REMARK  135  A    between atoms: _339  and  _342
REMARK  136  A    between atoms: _342  and  _343
REMARK  137  A    between atoms: _348  and  _349
REMARK  138  A    between atoms: _351  and  _353
REMARK  139  A    between atoms: _353  and  _354
REMARK  140  A    between atoms: _353  and  _356
REMARK  141  A    between atoms: _356  and  _357
REMARK  142  A    between atoms: _362  and  _364
REMARK  143  A    between atoms: _364  and  _365
REMARK  144  A    between atoms: _364  and  _367
REMARK  145  A    between atoms: _367  and  _368
REMARK  146  A    between atoms: _368  and  _369
REMARK  147  A    between atoms: _371  and  _373
REMARK  148  A    between atoms: _373  and  _374
REMARK  149  A    between atoms: _373  and  _376
REMARK  150  A    between atoms: _376  and  _377
REMARK  151  A    between atoms: _377  and  _378
REMARK  152  A    between atoms: _381  and  _383
REMARK  153  A    between atoms: _383  and  _384
REMARK  154  A    between atoms: _383  and  _386
REMARK  155  A    between atoms: _386  and  _387
REMARK  156  A    between atoms: _387  and  _388
REMARK  157  A    between atoms: _388  and  _389
REMARK  158  A    between atoms: _389  and  _390
REMARK  159  A    between atoms: _394  and  _396
REMARK  160  A    between atoms: _396  and  _397
REMARK  161  A    between atoms: _400  and  _402
REMARK  162  A    between atoms: _402  and  _403
REMARK  163  A    between atoms: _402  and  _405
REMARK  164  A    between atoms: _408  and  _410
REMARK  165  A    between atoms: _410  and  _411
REMARK  166  A    between atoms: _410  and  _413
REMARK  167  A    between atoms: _413  and  _414
REMARK  168  A    between atoms: _417  and  _419
REMARK  169  A    between atoms: _419  and  _420
REMARK  170  A    between atoms: _419  and  _422
REMARK  171  A    between atoms: _424  and  _426
REMARK  172  A    between atoms: _426  and  _427
REMARK  173  A    between atoms: _426  and  _429
REMARK  174  A    between atoms: _429  and  _430
REMARK  175  A    between atoms: _433  and  _435
REMARK  176  A    between atoms: _435  and  _436
REMARK  177  A    between atoms: _435  and  _438
REMARK  178  A    between atoms: _439  and  _440
REMARK  179  A    between atoms: _440  and  _441
REMARK  180  A    between atoms: _441  and  _442
REMARK  181  A    between atoms: _446  and  _448
REMARK  182  A    between atoms: _448  and  _449
REMARK  183  A    between atoms: _448  and  _451
REMARK  184  A    between atoms: _451  and  _452
REMARK  185  A    between atoms: _452  and  _453
REMARK  186  A    between atoms: _456  and  _458
REMARK  187  A    between atoms: _458  and  _459
REMARK  188  A    between atoms: _458  and  _461
REMARK  189  A    between atoms: _461  and  _462
REMARK  190  A    between atoms: _467  and  _469
REMARK  191  A    between atoms: _469  and  _470
REMARK  192  A    between atoms: _469  and  _472
REMARK  193  A    between atoms: _472  and  _473
REMARK  194  A    between atoms: _478  and  _480
REMARK  195  A    between atoms: _480  and  _481
REMARK  196  A    between atoms: _480  and  _483
REMARK  197  A    between atoms: _486  and  _488
REMARK  198  A    between atoms: _488  and  _489
REMARK  199  A    between atoms: _488  and  _491
REMARK  200  A    between atoms: _491  and  _492
REMARK  201  A    between atoms: _497  and  _498
REMARK  202  A    between atoms: _500  and  _502
REMARK  203  A    between atoms: _502  and  _503
REMARK  204  A    between atoms: _502  and  _505
REMARK  205  A    between atoms: _505  and  _506
REMARK  206  A    between atoms: _506  and  _507
REMARK  207  A    between atoms: _511  and  _512
REMARK  208  A    between atoms: _517  and  _519
REMARK  209  A    between atoms: _519  and  _520
REMARK  210  A    between atoms: _519  and  _522
REMARK  211  A    between atoms: _522  and  _523
REMARK  212  A    between atoms: _528  and  _529
REMARK  213  A    between atoms: _531  and  _533
REMARK  214  A    between atoms: _533  and  _534
REMARK  215  A    between atoms: _533  and  _536
REMARK  216  A    between atoms: _536  and  _537
REMARK  217  A    between atoms: _542  and  _544
REMARK  218  A    between atoms: _544  and  _545
REMARK  219  A    between atoms: _544  and  _547
REMARK  220  A    between atoms: _547  and  _548
REMARK  221  A    between atoms: _551  and  _553
REMARK  222  A    between atoms: _553  and  _554
REMARK  223  A    between atoms: _553  and  _556
REMARK  224  A    between atoms: _556  and  _557
REMARK  225  A    between atoms: _560  and  _562
REMARK  226  A    between atoms: _562  and  _563
REMARK  227  A    between atoms: _562  and  _565
REMARK  228  A    between atoms: _565  and  _566
REMARK  229  A    between atoms: _569  and  _571
REMARK  230  A    between atoms: _571  and  _572
REMARK  231  A    between atoms: _575  and  _577
REMARK  232  A    between atoms: _577  and  _578
REMARK  233  A    between atoms: _577  and  _580
REMARK  234  A    between atoms: _580  and  _581
REMARK  235  A    between atoms: _581  and  _582
REMARK  236  A    between atoms: _582  and  _583
REMARK  237  A    between atoms: _583  and  _584
REMARK                            x       y       z     vdW  Elec       q    Type
REMARK                         _______ _______ _______ _____ _____    ______ ____
ROOT
ATOM      1  O   HOH     1      -2.312 -26.047 -23.130  0.00  0.00    +0.000 OA
ENDROOT
TORSDOF 0
REMARK  Name = ../refined-set-2016/3qqa/3qqa_pocket.pdb
REMARK  237 active torsions:
REMARK  status: ('A' for Active; 'I' for Inactive)
REMARK    1  A    between atoms: _1  and  _3
REMARK    2  A    between atoms: _3  and  _4
REMARK    3  A    between atoms: _3  and  _6
REMARK    4  A    between atoms: _6  and  _7
REMARK    5  A    between atoms: _13  and  _15
REMARK    6  A    between atoms: _15  and  _16
REMARK    7  A    between atoms: _15  and  _18
REMARK    8  A    between atoms: _18  and  _19
REMARK    9  A    between atoms: _25  and  _27
REMARK   10  A    between atoms: _27  and  _28
REMARK   11  A    between atoms: _27  and  _30
REMARK   12  A    between atoms: _30  and  _31
REMARK   13  A    between atoms: _34  and  _36
REMARK   14  A    between atoms: _36  and  _37
REMARK   15  A    between atoms: _36  and  _39
REMARK   16  A    between atoms: _39  and  _40
REMARK   17  A    between atoms: _43  and  _45
REMARK   18  A    between atoms: _45  and  _46
REMARK   19  A    between atoms: _45  and  _48
REMARK   20  A    between atoms: _48  and  _49
REMARK   21  A    between atoms: _52  and  _54
REMARK   22  A    between atoms: _54  and  _55
REMARK   23  A    between atoms: _54  and  _57
REMARK   24  A    between atoms: _57  and  _58
REMARK   25  A    between atoms: _61  and  _63
REMARK   26  A    between atoms: _63  and  _64
REMARK   27  A    between atoms: _63  and  _66
REMARK   28  A    between atoms: _68  and  _70
REMARK   29  A    between atoms: _70  and  _71
REMARK   30  A    between atoms: _70  and  _73
REMARK   31  A    between atoms: _73  and  _74
REMARK   32  A    between atoms: _79  and  _81
REMARK   33  A    between atoms: _81  and  _82
REMARK   34  A    between atoms: _81  and  _84
REMARK   35  A    between atoms: _84  and  _85
REMARK   36  A    between atoms: _91  and  _93
REMARK   37  A    between atoms: _93  and  _94
REMARK   38  A    between atoms: _93  and  _96
REMARK   39  A    between atoms: _96  and  _97
REMARK   40  A    between atoms: _103  and  _105
REMARK   41  A    between atoms: _105  and  _106
REMARK   42  A    between atoms: _105  and  _108
REMARK   43  A    between atoms: _108  and  _109
REMARK   44  A    between atoms: _112  and  _114
REMARK   45  A    between atoms: _114  and  _115
REMARK   46  A    between atoms: _114  and  _117
REMARK   47  A    between atoms: _117  and  _118
REMARK   48  A    between atoms: _124  and  _126
REMARK   49  A    between atoms: _126  and  _127
REMARK   50  A    between atoms: _126  and  _129
REMARK   51  A    between atoms: _129  and  _130
REMARK   52  A    between atoms: _135  and  _137
REMARK   53  A    between atoms: _137  and  _138
REMARK   54  A    between atoms: _137  and  _140
REMARK   55  A    between atoms: _140  and  _141
REMARK   56  A    between atoms: _141  and  _142
REMARK   57  A    between atoms: _147  and  _149
REMARK   58  A    between atoms: _149  and  _150
REMARK   59  A    between atoms: _149  and  _152
REMARK   60  A    between atoms: _152  and  _153
REMARK   61  A    between atoms: _153  and  _154
REMARK   62  A    between atoms: _157  and  _159
REMARK   63  A    between atoms: _159  and  _160
REMARK   64  A    between atoms: _163  and  _165
REMARK   65  A    between atoms: _165  and  _166
REMARK   66  A    between atoms: _165  and  _168
REMARK   67  A    between atoms: _171  and  _173
REMARK   68  A    between atoms: _173  and  _174
REMARK   69  A    between atoms: _177  and  _179
REMARK   70  A    between atoms: _179  and  _180
REMARK   71  A    between atoms: _179  and  _182
REMARK   72  A    between atoms: _182  and  _183
REMARK   73  A    between atoms: _189  and  _191
REMARK   74  A    between atoms: _191  and  _192
REMARK   75  A    between atoms: _194  and  _196
REMARK   76  A    between atoms: _196  and  _197
REMARK   77  A    between atoms: _196  and  _199
REMARK   78  A    between atoms: _199  and  _200
REMARK   79  A    between atoms: _200  and  _201
REMARK   80  A    between atoms: _201  and  _202
REMARK   81  A    between atoms: _202  and  _203
REMARK   82  A    between atoms: _207  and  _209
REMARK   83  A    between atoms: _209  and  _210
REMARK   84  A    between atoms: _209  and  _212
REMARK   85  A    between atoms: _212  and  _213
REMARK   86  A    between atoms: _216  and  _218
REMARK   87  A    between atoms: _218  and  _219
REMARK   88  A    between atoms: _218  and  _221
REMARK   89  A    between atoms: _221  and  _222
REMARK   90  A    between atoms: _225  and  _227
REMARK   91  A    between atoms: _227  and  _228
REMARK   92  A    between atoms: _227  and  _230
REMARK   93  A    between atoms: _230  and  _231
REMARK   94  A    between atoms: _236  and  _237
REMARK   95  A    between atoms: _239  and  _241
REMARK   96  A    between atoms: _241  and  _242
REMARK   97  A    between atoms: _241  and  _244
REMARK   98  A    between atoms: _244  and  _245
REMARK   99  A    between atoms: _248  and  _250
REMARK  100  A    between atoms: _250  and  _251
REMARK  101  A    between atoms: _250  and  _253
REMARK  102  A    between atoms: _253  and  _254
REMARK  103  A    between atoms: _264  and  _266
REMARK  104  A    between atoms: _266  and  _267
REMARK  105  A    between atoms: _266  and  _269
REMARK  106  A    between atoms: _269  and  _270
REMARK  107  A    between atoms: _273  and  _275
REMARK  108  A    between atoms: _275  and  _276
REMARK  109  A    between atoms: _275  and  _278
REMARK  110  A    between atoms: _278  and  _279
REMARK  111  A    between atoms: _279  and  _280
REMARK  112  A    between atoms: _283  and  _285
REMARK  113  A    between atoms: _285  and  _286
REMARK  114  A    between atoms: _285  and  _288
REMARK  115  A    between atoms: _288  and  _289
REMARK  116  A    between atoms: _294  and  _296
REMARK  117  A    between atoms: _296  and  _297
REMARK  118  A    between atoms: _296  and  _299
REMARK  119  A    between atoms: _299  and  _300
REMARK  120  A    between atoms: _300  and  _301
REMARK  121  A    between atoms: _306  and  _308
REMARK  122  A    between atoms: _308  and  _309
REMARK  123  A    between atoms: _308  and  _311
REMARK  124  A    between atoms: _311  and  _312
REMARK  125  A    between atoms: _317  and  _319
REMARK  126  A    between atoms: _319  and  _320
REMARK  127  A    between atoms: _319  and  _322
REMARK  128  A    between atoms: _322  and  _323
REMARK  129  A    between atoms: _329  and  _331
REMARK  130  A    between atoms: _331  and  _332
REMARK  131  A    between atoms: _331  and  _334
REMARK  132  A    between atoms: _334  and  _335
REMARK  133  A    between atoms: _337  and  _339
REMARK  134  A    between atoms: _339  and  _340
REMARK  135  A    between atoms: _339  and  _342
REMARK  136  A    between atoms: _342  and  _343
REMARK  137  A    between atoms: _348  and  _349
REMARK  138  A    between atoms: _351  and  _353
REMARK  139  A    between atoms: _353  and  _354
REMARK  140  A    between atoms: _353  and  _356
REMARK  141  A    between atoms: _356  and  _357
REMARK  142  A    between atoms: _362  and  _364
REMARK  143  A    between atoms: _364  and  _365
REMARK  144  A    between atoms: _364  and  _367
REMARK  145  A    between atoms: _367  and  _368
REMARK  146  A    between atoms: _368  and  _369
REMARK  147  A    between atoms: _371  and  _373
REMARK  148  A    between atoms: _373  and  _374
REMARK  149  A    between atoms: _373  and  _376
REMARK  150  A    between atoms: _376  and  _377
REMARK  151  A    between atoms: _377  and  _378
REMARK  152  A    between atoms: _381  and  _383
REMARK  153  A    between atoms: _383  and  _384
REMARK  154  A    between atoms: _383  and  _386
REMARK  155  A    between atoms: _386  and  _387
REMARK  156  A    between atoms: _387  and  _388
REMARK  157  A    between atoms: _388  and  _389
REMARK  158  A    between atoms: _389  and  _390
REMARK  159  A    between atoms: _394  and  _396
REMARK  160  A    between atoms: _396  and  _397
REMARK  161  A    between atoms: _400  and  _402
REMARK  162  A    between atoms: _402  and  _403
REMARK  163  A    between atoms: _402  and  _405
REMARK  164  A    between atoms: _408  and  _410
REMARK  165  A    between atoms: _410  and  _411
REMARK  166  A    between atoms: _410  and  _413
REMARK  167  A    between atoms: _413  and  _414
REMARK  168  A    between atoms: _417  and  _419
REMARK  169  A    between atoms: _419  and  _420
REMARK  170  A    between atoms: _419  and  _422
REMARK  171  A    between atoms: _424  and  _426
REMARK  172  A    between atoms: _426  and  _427
REMARK  173  A    between atoms: _426  and  _429
REMARK  174  A    between atoms: _429  and  _430
REMARK  175  A    between atoms: _433  and  _435
REMARK  176  A    between atoms: _435  and  _436
REMARK  177  A    between atoms: _435  and  _438
REMARK  178  A    between atoms: _439  and  _440
REMARK  179  A    between atoms: _440  and  _441
REMARK  180  A    between atoms: _441  and  _442
REMARK  181  A    between atoms: _446  and  _448
REMARK  182  A    between atoms: _448  and  _449
REMARK  183  A    between atoms: _448  and  _451
REMARK  184  A    between atoms: _451  and  _452
REMARK  185  A    between atoms: _452  and  _453
REMARK  186  A    between atoms: _456  and  _458
REMARK  187  A    between atoms: _458  and  _459
REMARK  188  A    between atoms: _458  and  _461
REMARK  189  A    between atoms: _461  and  _462
REMARK  190  A    between atoms: _467  and  _469
REMARK  191  A    between atoms: _469  and  _470
REMARK  192  A    between atoms: _469  and  _472
REMARK  193  A    between atoms: _472  and  _473
REMARK  194  A    between atoms: _478  and  _480
REMARK  195  A    between atoms: _480  and  _481
REMARK  196  A    between atoms: _480  and  _483
REMARK  197  A    between atoms: _486  and  _488
REMARK  198  A    between atoms: _488  and  _489
REMARK  199  A    between atoms: _488  and  _491
REMARK  200  A    between atoms: _491  and  _492
REMARK  201  A    between atoms: _497  and  _498
REMARK  202  A    between atoms: _500  and  _502
REMARK  203  A    between atoms: _502  and  _503
REMARK  204  A    between atoms: _502  and  _505
REMARK  205  A    between atoms: _505  and  _506
REMARK  206  A    between atoms: _506  and  _507
REMARK  207  A    between atoms: _511  and  _512
REMARK  208  A    between atoms: _517  and  _519
REMARK  209  A    between atoms: _519  and  _520
REMARK  210  A    between atoms: _519  and  _522
REMARK  211  A    between atoms: _522  and  _523
REMARK  212  A    between atoms: _528  and  _529
REMARK  213  A    between atoms: _531  and  _533
REMARK  214  A    between atoms: _533  and  _534
REMARK  215  A    between atoms: _533  and  _536
REMARK  216  A    between atoms: _536  and  _537
REMARK  217  A    between atoms: _542  and  _544
REMARK  218  A    between atoms: _544  and  _545
REMARK  219  A    between atoms: _544  and  _547
REMARK  220  A    between atoms: _547  and  _548
REMARK  221  A    between atoms: _551  and  _553
REMARK  222  A    between atoms: _553  and  _554
REMARK  223  A    between atoms: _553  and  _556
REMARK  224  A    between atoms: _556  and  _557
REMARK  225  A    between atoms: _560  and  _562
REMARK  226  A    between atoms: _562  and  _563
REMARK  227  A    between atoms: _562  and  _565
REMARK  228  A    between atoms: _565  and  _566
REMARK  229  A    between atoms: _569  and  _571
REMARK  230  A    between atoms: _571  and  _572
REMARK  231  A    between atoms: _575  and  _577
REMARK  232  A    between atoms: _577  and  _578
REMARK  233  A    between atoms: _577  and  _580
REMARK  234  A    between atoms: _580  and  _581
REMARK  235  A    between atoms: _581  and  _582
REMARK  236  A    between atoms: _582  and  _583
REMARK  237  A    between atoms: _583  and  _584
REMARK                            x       y       z     vdW  Elec       q    Type
REMARK                         _______ _______ _______ _____ _____    ______ ____
ROOT
ATOM      1  O   HOH     1       0.003 -29.792 -14.473  0.00  0.00    +0.000 OA
ENDROOT
TORSDOF 0
REMARK  Name = ../refined-set-2016/3qqa/3qqa_pocket.pdb
REMARK  237 active torsions:
REMARK  status: ('A' for Active; 'I' for Inactive)
REMARK    1  A    between atoms: _1  and  _3
REMARK    2  A    between atoms: _3  and  _4
REMARK    3  A    between atoms: _3  and  _6
REMARK    4  A    between atoms: _6  and  _7
REMARK    5  A    between atoms: _13  and  _15
REMARK    6  A    between atoms: _15  and  _16
REMARK    7  A    between atoms: _15  and  _18
REMARK    8  A    between atoms: _18  and  _19
REMARK    9  A    between atoms: _25  and  _27
REMARK   10  A    between atoms: _27  and  _28
REMARK   11  A    between atoms: _27  and  _30
REMARK   12  A    between atoms: _30  and  _31
REMARK   13  A    between atoms: _34  and  _36
REMARK   14  A    between atoms: _36  and  _37
REMARK   15  A    between atoms: _36  and  _39
REMARK   16  A    between atoms: _39  and  _40
REMARK   17  A    between atoms: _43  and  _45
REMARK   18  A    between atoms: _45  and  _46
REMARK   19  A    between atoms: _45  and  _48
REMARK   20  A    between atoms: _48  and  _49
REMARK   21  A    between atoms: _52  and  _54
REMARK   22  A    between atoms: _54  and  _55
REMARK   23  A    between atoms: _54  and  _57
REMARK   24  A    between atoms: _57  and  _58
REMARK   25  A    between atoms: _61  and  _63
REMARK   26  A    between atoms: _63  and  _64
REMARK   27  A    between atoms: _63  and  _66
REMARK   28  A    between atoms: _68  and  _70
REMARK   29  A    between atoms: _70  and  _71
REMARK   30  A    between atoms: _70  and  _73
REMARK   31  A    between atoms: _73  and  _74
REMARK   32  A    between atoms: _79  and  _81
REMARK   33  A    between atoms: _81  and  _82
REMARK   34  A    between atoms: _81  and  _84
REMARK   35  A    between atoms: _84  and  _85
REMARK   36  A    between atoms: _91  and  _93
REMARK   37  A    between atoms: _93  and  _94
REMARK   38  A    between atoms: _93  and  _96
REMARK   39  A    between atoms: _96  and  _97
REMARK   40  A    between atoms: _103  and  _105
REMARK   41  A    between atoms: _105  and  _106
REMARK   42  A    between atoms: _105  and  _108
REMARK   43  A    between atoms: _108  and  _109
REMARK   44  A    between atoms: _112  and  _114
REMARK   45  A    between atoms: _114  and  _115
REMARK   46  A    between atoms: _114  and  _117
REMARK   47  A    between atoms: _117  and  _118
REMARK   48  A    between atoms: _124  and  _126
REMARK   49  A    between atoms: _126  and  _127
REMARK   50  A    between atoms: _126  and  _129
REMARK   51  A    between atoms: _129  and  _130
REMARK   52  A    between atoms: _135  and  _137
REMARK   53  A    between atoms: _137  and  _138
REMARK   54  A    between atoms: _137  and  _140
REMARK   55  A    between atoms: _140  and  _141
REMARK   56  A    between atoms: _141  and  _142
REMARK   57  A    between atoms: _147  and  _149
REMARK   58  A    between atoms: _149  and  _150
REMARK   59  A    between atoms: _149  and  _152
REMARK   60  A    between atoms: _152  and  _153
REMARK   61  A    between atoms: _153  and  _154
REMARK   62  A    between atoms: _157  and  _159
REMARK   63  A    between atoms: _159  and  _160
REMARK   64  A    between atoms: _163  and  _165
REMARK   65  A    between atoms: _165  and  _166
REMARK   66  A    between atoms: _165  and  _168
REMARK   67  A    between atoms: _171  and  _173
REMARK   68  A    between atoms: _173  and  _174
REMARK   69  A    between atoms: _177  and  _179
REMARK   70  A    between atoms: _179  and  _180
REMARK   71  A    between atoms: _179  and  _182
REMARK   72  A    between atoms: _182  and  _183
REMARK   73  A    between atoms: _189  and  _191
REMARK   74  A    between atoms: _191  and  _192
REMARK   75  A    between atoms: _194  and  _196
REMARK   76  A    between atoms: _196  and  _197
REMARK   77  A    between atoms: _196  and  _199
REMARK   78  A    between atoms: _199  and  _200
REMARK   79  A    between atoms: _200  and  _201
REMARK   80  A    between atoms: _201  and  _202
REMARK   81  A    between atoms: _202  and  _203
REMARK   82  A    between atoms: _207  and  _209
REMARK   83  A    between atoms: _209  and  _210
REMARK   84  A    between atoms: _209  and  _212
REMARK   85  A    between atoms: _212  and  _213
REMARK   86  A    between atoms: _216  and  _218
REMARK   87  A    between atoms: _218  and  _219
REMARK   88  A    between atoms: _218  and  _221
REMARK   89  A    between atoms: _221  and  _222
REMARK   90  A    between atoms: _225  and  _227
REMARK   91  A    between atoms: _227  and  _228
REMARK   92  A    between atoms: _227  and  _230
REMARK   93  A    between atoms: _230  and  _231
REMARK   94  A    between atoms: _236  and  _237
REMARK   95  A    between atoms: _239  and  _241
REMARK   96  A    between atoms: _241  and  _242
REMARK   97  A    between atoms: _241  and  _244
REMARK   98  A    between atoms: _244  and  _245
REMARK   99  A    between atoms: _248  and  _250
REMARK  100  A    between atoms: _250  and  _251
REMARK  101  A    between atoms: _250  and  _253
REMARK  102  A    between atoms: _253  and  _254
REMARK  103  A    between atoms: _264  and  _266
REMARK  104  A    between atoms: _266  and  _267
REMARK  105  A    between atoms: _266  and  _269
REMARK  106  A    between atoms: _269  and  _270
REMARK  107  A    between atoms: _273  and  _275
REMARK  108  A    between atoms: _275  and  _276
REMARK  109  A    between atoms: _275  and  _278
REMARK  110  A    between atoms: _278  and  _279
REMARK  111  A    between atoms: _279  and  _280
REMARK  112  A    between atoms: _283  and  _285
REMARK  113  A    between atoms: _285  and  _286
REMARK  114  A    between atoms: _285  and  _288
REMARK  115  A    between atoms: _288  and  _289
REMARK  116  A    between atoms: _294  and  _296
REMARK  117  A    between atoms: _296  and  _297
REMARK  118  A    between atoms: _296  and  _299
REMARK  119  A    between atoms: _299  and  _300
REMARK  120  A    between atoms: _300  and  _301
REMARK  121  A    between atoms: _306  and  _308
REMARK  122  A    between atoms: _308  and  _309
REMARK  123  A    between atoms: _308  and  _311
REMARK  124  A    between atoms: _311  and  _312
REMARK  125  A    between atoms: _317  and  _319
REMARK  126  A    between atoms: _319  and  _320
REMARK  127  A    between atoms: _319  and  _322
REMARK  128  A    between atoms: _322  and  _323
REMARK  129  A    between atoms: _329  and  _331
REMARK  130  A    between atoms: _331  and  _332
REMARK  131  A    between atoms: _331  and  _334
REMARK  132  A    between atoms: _334  and  _335
REMARK  133  A    between atoms: _337  and  _339
REMARK  134  A    between atoms: _339  and  _340
REMARK  135  A    between atoms: _339  and  _342
REMARK  136  A    between atoms: _342  and  _343
REMARK  137  A    between atoms: _348  and  _349
REMARK  138  A    between atoms: _351  and  _353
REMARK  139  A    between atoms: _353  and  _354
REMARK  140  A    between atoms: _353  and  _356
REMARK  141  A    between atoms: _356  and  _357
REMARK  142  A    between atoms: _362  and  _364
REMARK  143  A    between atoms: _364  and  _365
REMARK  144  A    between atoms: _364  and  _367
REMARK  145  A    between atoms: _367  and  _368
REMARK  146  A    between atoms: _368  and  _369
REMARK  147  A    between atoms: _371  and  _373
REMARK  148  A    between atoms: _373  and  _374
REMARK  149  A    between atoms: _373  and  _376
REMARK  150  A    between atoms: _376  and  _377
REMARK  151  A    between atoms: _377  and  _378
REMARK  152  A    between atoms: _381  and  _383
REMARK  153  A    between atoms: _383  and  _384
REMARK  154  A    between atoms: _383  and  _386
REMARK  155  A    between atoms: _386  and  _387
REMARK  156  A    between atoms: _387  and  _388
REMARK  157  A    between atoms: _388  and  _389
REMARK  158  A    between atoms: _389  and  _390
REMARK  159  A    between atoms: _394  and  _396
REMARK  160  A    between atoms: _396  and  _397
REMARK  161  A    between atoms: _400  and  _402
REMARK  162  A    between atoms: _402  and  _403
REMARK  163  A    between atoms: _402  and  _405
REMARK  164  A    between atoms: _408  and  _410
REMARK  165  A    between atoms: _410  and  _411
REMARK  166  A    between atoms: _410  and  _413
REMARK  167  A    between atoms: _413  and  _414
REMARK  168  A    between atoms: _417  and  _419
REMARK  169  A    between atoms: _419  and  _420
REMARK  170  A    between atoms: _419  and  _422
REMARK  171  A    between atoms: _424  and  _426
REMARK  172  A    between atoms: _426  and  _427
REMARK  173  A    between atoms: _426  and  _429
REMARK  174  A    between atoms: _429  and  _430
REMARK  175  A    between atoms: _433  and  _435
REMARK  176  A    between atoms: _435  and  _436
REMARK  177  A    between atoms: _435  and  _438
REMARK  178  A    between atoms: _439  and  _440
REMARK  179  A    between atoms: _440  and  _441
REMARK  180  A    between atoms: _441  and  _442
REMARK  181  A    between atoms: _446  and  _448
REMARK  182  A    between atoms: _448  and  _449
REMARK  183  A    between atoms: _448  and  _451
REMARK  184  A    between atoms: _451  and  _452
REMARK  185  A    between atoms: _452  and  _453
REMARK  186  A    between atoms: _456  and  _458
REMARK  187  A    between atoms: _458  and  _459
REMARK  188  A    between atoms: _458  and  _461
REMARK  189  A    between atoms: _461  and  _462
REMARK  190  A    between atoms: _467  and  _469
REMARK  191  A    between atoms: _469  and  _470
REMARK  192  A    between atoms: _469  and  _472
REMARK  193  A    between atoms: _472  and  _473
REMARK  194  A    between atoms: _478  and  _480
REMARK  195  A    between atoms: _480  and  _481
REMARK  196  A    between atoms: _480  and  _483
REMARK  197  A    between atoms: _486  and  _488
REMARK  198  A    between atoms: _488  and  _489
REMARK  199  A    between atoms: _488  and  _491
REMARK  200  A    between atoms: _491  and  _492
REMARK  201  A    between atoms: _497  and  _498
REMARK  202  A    between atoms: _500  and  _502
REMARK  203  A    between atoms: _502  and  _503
REMARK  204  A    between atoms: _502  and  _505
REMARK  205  A    between atoms: _505  and  _506
REMARK  206  A    between atoms: _506  and  _507
REMARK  207  A    between atoms: _511  and  _512
REMARK  208  A    between atoms: _517  and  _519
REMARK  209  A    between atoms: _519  and  _520
REMARK  210  A    between atoms: _519  and  _522
REMARK  211  A    between atoms: _522  and  _523
REMARK  212  A    between atoms: _528  and  _529
REMARK  213  A    between atoms: _531  and  _533
REMARK  214  A    between atoms: _533  and  _534
REMARK  215  A    between atoms: _533  and  _536
REMARK  216  A    between atoms: _536  and  _537
REMARK  217  A    between atoms: _542  and  _544
REMARK  218  A    between atoms: _544  and  _545
REMARK  219  A    between atoms: _544  and  _547
REMARK  220  A    between atoms: _547  and  _548
REMARK  221  A    between atoms: _551  and  _553
REMARK  222  A    between atoms: _553  and  _554
REMARK  223  A    between atoms: _553  and  _556
REMARK  224  A    between atoms: _556  and  _557
REMARK  225  A    between atoms: _560  and  _562
REMARK  226  A    between atoms: _562  and  _563
REMARK  227  A    between atoms: _562  and  _565
REMARK  228  A    between atoms: _565  and  _566
REMARK  229  A    between atoms: _569  and  _571
REMARK  230  A    between atoms: _571  and  _572
REMARK  231  A    between atoms: _575  and  _577
REMARK  232  A    between atoms: _577  and  _578
REMARK  233  A    between atoms: _577  and  _580
REMARK  234  A    between atoms: _580  and  _581
REMARK  235  A    between atoms: _581  and  _582
REMARK  236  A    between atoms: _582  and  _583
REMARK  237  A    between atoms: _583  and  _584
REMARK                            x       y       z     vdW  Elec       q    Type
REMARK                         _______ _______ _______ _____ _____    ______ ____
ROOT
ATOM      1  O   HOH     1       1.968 -30.927 -15.648  0.00  0.00    +0.000 OA
ENDROOT
TORSDOF 0
REMARK  Name = ../refined-set-2016/3qqa/3qqa_pocket.pdb
REMARK  237 active torsions:
REMARK  status: ('A' for Active; 'I' for Inactive)
REMARK    1  A    between atoms: _1  and  _3
REMARK    2  A    between atoms: _3  and  _4
REMARK    3  A    between atoms: _3  and  _6
REMARK    4  A    between atoms: _6  and  _7
REMARK    5  A    between atoms: _13  and  _15
REMARK    6  A    between atoms: _15  and  _16
REMARK    7  A    between atoms: _15  and  _18
REMARK    8  A    between atoms: _18  and  _19
REMARK    9  A    between atoms: _25  and  _27
REMARK   10  A    between atoms: _27  and  _28
REMARK   11  A    between atoms: _27  and  _30
REMARK   12  A    between atoms: _30  and  _31
REMARK   13  A    between atoms: _34  and  _36
REMARK   14  A    between atoms: _36  and  _37
REMARK   15  A    between atoms: _36  and  _39
REMARK   16  A    between atoms: _39  and  _40
REMARK   17  A    between atoms: _43  and  _45
REMARK   18  A    between atoms: _45  and  _46
REMARK   19  A    between atoms: _45  and  _48
REMARK   20  A    between atoms: _48  and  _49
REMARK   21  A    between atoms: _52  and  _54
REMARK   22  A    between atoms: _54  and  _55
REMARK   23  A    between atoms: _54  and  _57
REMARK   24  A    between atoms: _57  and  _58
REMARK   25  A    between atoms: _61  and  _63
REMARK   26  A    between atoms: _63  and  _64
REMARK   27  A    between atoms: _63  and  _66
REMARK   28  A    between atoms: _68  and  _70
REMARK   29  A    between atoms: _70  and  _71
REMARK   30  A    between atoms: _70  and  _73
REMARK   31  A    between atoms: _73  and  _74
REMARK   32  A    between atoms: _79  and  _81
REMARK   33  A    between atoms: _81  and  _82
REMARK   34  A    between atoms: _81  and  _84
REMARK   35  A    between atoms: _84  and  _85
REMARK   36  A    between atoms: _91  and  _93
REMARK   37  A    between atoms: _93  and  _94
REMARK   38  A    between atoms: _93  and  _96
REMARK   39  A    between atoms: _96  and  _97
REMARK   40  A    between atoms: _103  and  _105
REMARK   41  A    between atoms: _105  and  _106
REMARK   42  A    between atoms: _105  and  _108
REMARK   43  A    between atoms: _108  and  _109
REMARK   44  A    between atoms: _112  and  _114
REMARK   45  A    between atoms: _114  and  _115
REMARK   46  A    between atoms: _114  and  _117
REMARK   47  A    between atoms: _117  and  _118
REMARK   48  A    between atoms: _124  and  _126
REMARK   49  A    between atoms: _126  and  _127
REMARK   50  A    between atoms: _126  and  _129
REMARK   51  A    between atoms: _129  and  _130
REMARK   52  A    between atoms: _135  and  _137
REMARK   53  A    between atoms: _137  and  _138
REMARK   54  A    between atoms: _137  and  _140
REMARK   55  A    between atoms: _140  and  _141
REMARK   56  A    between atoms: _141  and  _142
REMARK   57  A    between atoms: _147  and  _149
REMARK   58  A    between atoms: _149  and  _150
REMARK   59  A    between atoms: _149  and  _152
REMARK   60  A    between atoms: _152  and  _153
REMARK   61  A    between atoms: _153  and  _154
REMARK   62  A    between atoms: _157  and  _159
REMARK   63  A    between atoms: _159  and  _160
REMARK   64  A    between atoms: _163  and  _165
REMARK   65  A    between atoms: _165  and  _166
REMARK   66  A    between atoms: _165  and  _168
REMARK   67  A    between atoms: _171  and  _173
REMARK   68  A    between atoms: _173  and  _174
REMARK   69  A    between atoms: _177  and  _179
REMARK   70  A    between atoms: _179  and  _180
REMARK   71  A    between atoms: _179  and  _182
REMARK   72  A    between atoms: _182  and  _183
REMARK   73  A    between atoms: _189  and  _191
REMARK   74  A    between atoms: _191  and  _192
REMARK   75  A    between atoms: _194  and  _196
REMARK   76  A    between atoms: _196  and  _197
REMARK   77  A    between atoms: _196  and  _199
REMARK   78  A    between atoms: _199  and  _200
REMARK   79  A    between atoms: _200  and  _201
REMARK   80  A    between atoms: _201  and  _202
REMARK   81  A    between atoms: _202  and  _203
REMARK   82  A    between atoms: _207  and  _209
REMARK   83  A    between atoms: _209  and  _210
REMARK   84  A    between atoms: _209  and  _212
REMARK   85  A    between atoms: _212  and  _213
REMARK   86  A    between atoms: _216  and  _218
REMARK   87  A    between atoms: _218  and  _219
REMARK   88  A    between atoms: _218  and  _221
REMARK   89  A    between atoms: _221  and  _222
REMARK   90  A    between atoms: _225  and  _227
REMARK   91  A    between atoms: _227  and  _228
REMARK   92  A    between atoms: _227  and  _230
REMARK   93  A    between atoms: _230  and  _231
REMARK   94  A    between atoms: _236  and  _237
REMARK   95  A    between atoms: _239  and  _241
REMARK   96  A    between atoms: _241  and  _242
REMARK   97  A    between atoms: _241  and  _244
REMARK   98  A    between atoms: _244  and  _245
REMARK   99  A    between atoms: _248  and  _250
REMARK  100  A    between atoms: _250  and  _251
REMARK  101  A    between atoms: _250  and  _253
REMARK  102  A    between atoms: _253  and  _254
REMARK  103  A    between atoms: _264  and  _266
REMARK  104  A    between atoms: _266  and  _267
REMARK  105  A    between atoms: _266  and  _269
REMARK  106  A    between atoms: _269  and  _270
REMARK  107  A    between atoms: _273  and  _275
REMARK  108  A    between atoms: _275  and  _276
REMARK  109  A    between atoms: _275  and  _278
REMARK  110  A    between atoms: _278  and  _279
REMARK  111  A    between atoms: _279  and  _280
REMARK  112  A    between atoms: _283  and  _285
REMARK  113  A    between atoms: _285  and  _286
REMARK  114  A    between atoms: _285  and  _288
REMARK  115  A    between atoms: _288  and  _289
REMARK  116  A    between atoms: _294  and  _296
REMARK  117  A    between atoms: _296  and  _297
REMARK  118  A    between atoms: _296  and  _299
REMARK  119  A    between atoms: _299  and  _300
REMARK  120  A    between atoms: _300  and  _301
REMARK  121  A    between atoms: _306  and  _308
REMARK  122  A    between atoms: _308  and  _309
REMARK  123  A    between atoms: _308  and  _311
REMARK  124  A    between atoms: _311  and  _312
REMARK  125  A    between atoms: _317  and  _319
REMARK  126  A    between atoms: _319  and  _320
REMARK  127  A    between atoms: _319  and  _322
REMARK  128  A    between atoms: _322  and  _323
REMARK  129  A    between atoms: _329  and  _331
REMARK  130  A    between atoms: _331  and  _332
REMARK  131  A    between atoms: _331  and  _334
REMARK  132  A    between atoms: _334  and  _335
REMARK  133  A    between atoms: _337  and  _339
REMARK  134  A    between atoms: _339  and  _340
REMARK  135  A    between atoms: _339  and  _342
REMARK  136  A    between atoms: _342  and  _343
REMARK  137  A    between atoms: _348  and  _349
REMARK  138  A    between atoms: _351  and  _353
REMARK  139  A    between atoms: _353  and  _354
REMARK  140  A    between atoms: _353  and  _356
REMARK  141  A    between atoms: _356  and  _357
REMARK  142  A    between atoms: _362  and  _364
REMARK  143  A    between atoms: _364  and  _365
REMARK  144  A    between atoms: _364  and  _367
REMARK  145  A    between atoms: _367  and  _368
REMARK  146  A    between atoms: _368  and  _369
REMARK  147  A    between atoms: _371  and  _373
REMARK  148  A    between atoms: _373  and  _374
REMARK  149  A    between atoms: _373  and  _376
REMARK  150  A    between atoms: _376  and  _377
REMARK  151  A    between atoms: _377  and  _378
REMARK  152  A    between atoms: _381  and  _383
REMARK  153  A    between atoms: _383  and  _384
REMARK  154  A    between atoms: _383  and  _386
REMARK  155  A    between atoms: _386  and  _387
REMARK  156  A    between atoms: _387  and  _388
REMARK  157  A    between atoms: _388  and  _389
REMARK  158  A    between atoms: _389  and  _390
REMARK  159  A    between atoms: _394  and  _396
REMARK  160  A    between atoms: _396  and  _397
REMARK  161  A    between atoms: _400  and  _402
REMARK  162  A    between atoms: _402  and  _403
REMARK  163  A    between atoms: _402  and  _405
REMARK  164  A    between atoms: _408  and  _410
REMARK  165  A    between atoms: _410  and  _411
REMARK  166  A    between atoms: _410  and  _413
REMARK  167  A    between atoms: _413  and  _414
REMARK  168  A    between atoms: _417  and  _419
REMARK  169  A    between atoms: _419  and  _420
REMARK  170  A    between atoms: _419  and  _422
REMARK  171  A    between atoms: _424  and  _426
REMARK  172  A    between atoms: _426  and  _427
REMARK  173  A    between atoms: _426  and  _429
REMARK  174  A    between atoms: _429  and  _430
REMARK  175  A    between atoms: _433  and  _435
REMARK  176  A    between atoms: _435  and  _436
REMARK  177  A    between atoms: _435  and  _438
REMARK  178  A    between atoms: _439  and  _440
REMARK  179  A    between atoms: _440  and  _441
REMARK  180  A    between atoms: _441  and  _442
REMARK  181  A    between atoms: _446  and  _448
REMARK  182  A    between atoms: _448  and  _449
REMARK  183  A    between atoms: _448  and  _451
REMARK  184  A    between atoms: _451  and  _452
REMARK  185  A    between atoms: _452  and  _453
REMARK  186  A    between atoms: _456  and  _458
REMARK  187  A    between atoms: _458  and  _459
REMARK  188  A    between atoms: _458  and  _461
REMARK  189  A    between atoms: _461  and  _462
REMARK  190  A    between atoms: _467  and  _469
REMARK  191  A    between atoms: _469  and  _470
REMARK  192  A    between atoms: _469  and  _472
REMARK  193  A    between atoms: _472  and  _473
REMARK  194  A    between atoms: _478  and  _480
REMARK  195  A    between atoms: _480  and  _481
REMARK  196  A    between atoms: _480  and  _483
REMARK  197  A    between atoms: _486  and  _488
REMARK  198  A    between atoms: _488  and  _489
REMARK  199  A    between atoms: _488  and  _491
REMARK  200  A    between atoms: _491  and  _492
REMARK  201  A    between atoms: _497  and  _498
REMARK  202  A    between atoms: _500  and  _502
REMARK  203  A    between atoms: _502  and  _503
REMARK  204  A    between atoms: _502  and  _505
REMARK  205  A    between atoms: _505  and  _506
REMARK  206  A    between atoms: _506  and  _507
REMARK  207  A    between atoms: _511  and  _512
REMARK  208  A    between atoms: _517  and  _519
REMARK  209  A    between atoms: _519  and  _520
REMARK  210  A    between atoms: _519  and  _522
REMARK  211  A    between atoms: _522  and  _523
REMARK  212  A    between atoms: _528  and  _529
REMARK  213  A    between atoms: _531  and  _533
REMARK  214  A    between atoms: _533  and  _534
REMARK  215  A    between atoms: _533  and  _536
REMARK  216  A    between atoms: _536  and  _537
REMARK  217  A    between atoms: _542  and  _544
REMARK  218  A    between atoms: _544  and  _545
REMARK  219  A    between atoms: _544  and  _547
REMARK  220  A    between atoms: _547  and  _548
REMARK  221  A    between atoms: _551  and  _553
REMARK  222  A    between atoms: _553  and  _554
REMARK  223  A    between atoms: _553  and  _556
REMARK  224  A    between atoms: _556  and  _557
REMARK  225  A    between atoms: _560  and  _562
REMARK  226  A    between atoms: _562  and  _563
REMARK  227  A    between atoms: _562  and  _565
REMARK  228  A    between atoms: _565  and  _566
REMARK  229  A    between atoms: _569  and  _571
REMARK  230  A    between atoms: _571  and  _572
REMARK  231  A    between atoms: _575  and  _577
REMARK  232  A    between atoms: _577  and  _578
REMARK  233  A    between atoms: _577  and  _580
REMARK  234  A    between atoms: _580  and  _581
REMARK  235  A    between atoms: _581  and  _582
REMARK  236  A    between atoms: _582  and  _583
REMARK  237  A    between atoms: _583  and  _584
REMARK                            x       y       z     vdW  Elec       q    Type
REMARK                         _______ _______ _______ _____ _____    ______ ____
ROOT
ATOM      1  O   HOH     1      -1.872 -31.699 -17.717  0.00  0.00    +0.000 OA
ENDROOT
TORSDOF 0
REMARK  Name = ../refined-set-2016/3qqa/3qqa_pocket.pdb
REMARK  237 active torsions:
REMARK  status: ('A' for Active; 'I' for Inactive)
REMARK    1  A    between atoms: _1  and  _3
REMARK    2  A    between atoms: _3  and  _4
REMARK    3  A    between atoms: _3  and  _6
REMARK    4  A    between atoms: _6  and  _7
REMARK    5  A    between atoms: _13  and  _15
REMARK    6  A    between atoms: _15  and  _16
REMARK    7  A    between atoms: _15  and  _18
REMARK    8  A    between atoms: _18  and  _19
REMARK    9  A    between atoms: _25  and  _27
REMARK   10  A    between atoms: _27  and  _28
REMARK   11  A    between atoms: _27  and  _30
REMARK   12  A    between atoms: _30  and  _31
REMARK   13  A    between atoms: _34  and  _36
REMARK   14  A    between atoms: _36  and  _37
REMARK   15  A    between atoms: _36  and  _39
REMARK   16  A    between atoms: _39  and  _40
REMARK   17  A    between atoms: _43  and  _45
REMARK   18  A    between atoms: _45  and  _46
REMARK   19  A    between atoms: _45  and  _48
REMARK   20  A    between atoms: _48  and  _49
REMARK   21  A    between atoms: _52  and  _54
REMARK   22  A    between atoms: _54  and  _55
REMARK   23  A    between atoms: _54  and  _57
REMARK   24  A    between atoms: _57  and  _58
REMARK   25  A    between atoms: _61  and  _63
REMARK   26  A    between atoms: _63  and  _64
REMARK   27  A    between atoms: _63  and  _66
REMARK   28  A    between atoms: _68  and  _70
REMARK   29  A    between atoms: _70  and  _71
REMARK   30  A    between atoms: _70  and  _73
REMARK   31  A    between atoms: _73  and  _74
REMARK   32  A    between atoms: _79  and  _81
REMARK   33  A    between atoms: _81  and  _82
REMARK   34  A    between atoms: _81  and  _84
REMARK   35  A    between atoms: _84  and  _85
REMARK   36  A    between atoms: _91  and  _93
REMARK   37  A    between atoms: _93  and  _94
REMARK   38  A    between atoms: _93  and  _96
REMARK   39  A    between atoms: _96  and  _97
REMARK   40  A    between atoms: _103  and  _105
REMARK   41  A    between atoms: _105  and  _106
REMARK   42  A    between atoms: _105  and  _108
REMARK   43  A    between atoms: _108  and  _109
REMARK   44  A    between atoms: _112  and  _114
REMARK   45  A    between atoms: _114  and  _115
REMARK   46  A    between atoms: _114  and  _117
REMARK   47  A    between atoms: _117  and  _118
REMARK   48  A    between atoms: _124  and  _126
REMARK   49  A    between atoms: _126  and  _127
REMARK   50  A    between atoms: _126  and  _129
REMARK   51  A    between atoms: _129  and  _130
REMARK   52  A    between atoms: _135  and  _137
REMARK   53  A    between atoms: _137  and  _138
REMARK   54  A    between atoms: _137  and  _140
REMARK   55  A    between atoms: _140  and  _141
REMARK   56  A    between atoms: _141  and  _142
REMARK   57  A    between atoms: _147  and  _149
REMARK   58  A    between atoms: _149  and  _150
REMARK   59  A    between atoms: _149  and  _152
REMARK   60  A    between atoms: _152  and  _153
REMARK   61  A    between atoms: _153  and  _154
REMARK   62  A    between atoms: _157  and  _159
REMARK   63  A    between atoms: _159  and  _160
REMARK   64  A    between atoms: _163  and  _165
REMARK   65  A    between atoms: _165  and  _166
REMARK   66  A    between atoms: _165  and  _168
REMARK   67  A    between atoms: _171  and  _173
REMARK   68  A    between atoms: _173  and  _174
REMARK   69  A    between atoms: _177  and  _179
REMARK   70  A    between atoms: _179  and  _180
REMARK   71  A    between atoms: _179  and  _182
REMARK   72  A    between atoms: _182  and  _183
REMARK   73  A    between atoms: _189  and  _191
REMARK   74  A    between atoms: _191  and  _192
REMARK   75  A    between atoms: _194  and  _196
REMARK   76  A    between atoms: _196  and  _197
REMARK   77  A    between atoms: _196  and  _199
REMARK   78  A    between atoms: _199  and  _200
REMARK   79  A    between atoms: _200  and  _201
REMARK   80  A    between atoms: _201  and  _202
REMARK   81  A    between atoms: _202  and  _203
REMARK   82  A    between atoms: _207  and  _209
REMARK   83  A    between atoms: _209  and  _210
REMARK   84  A    between atoms: _209  and  _212
REMARK   85  A    between atoms: _212  and  _213
REMARK   86  A    between atoms: _216  and  _218
REMARK   87  A    between atoms: _218  and  _219
REMARK   88  A    between atoms: _218  and  _221
REMARK   89  A    between atoms: _221  and  _222
REMARK   90  A    between atoms: _225  and  _227
REMARK   91  A    between atoms: _227  and  _228
REMARK   92  A    between atoms: _227  and  _230
REMARK   93  A    between atoms: _230  and  _231
REMARK   94  A    between atoms: _236  and  _237
REMARK   95  A    between atoms: _239  and  _241
REMARK   96  A    between atoms: _241  and  _242
REMARK   97  A    between atoms: _241  and  _244
REMARK   98  A    between atoms: _244  and  _245
REMARK   99  A    between atoms: _248  and  _250
REMARK  100  A    between atoms: _250  and  _251
REMARK  101  A    between atoms: _250  and  _253
REMARK  102  A    between atoms: _253  and  _254
REMARK  103  A    between atoms: _264  and  _266
REMARK  104  A    between atoms: _266  and  _267
REMARK  105  A    between atoms: _266  and  _269
REMARK  106  A    between atoms: _269  and  _270
REMARK  107  A    between atoms: _273  and  _275
REMARK  108  A    between atoms: _275  and  _276
REMARK  109  A    between atoms: _275  and  _278
REMARK  110  A    between atoms: _278  and  _279
REMARK  111  A    between atoms: _279  and  _280
REMARK  112  A    between atoms: _283  and  _285
REMARK  113  A    between atoms: _285  and  _286
REMARK  114  A    between atoms: _285  and  _288
REMARK  115  A    between atoms: _288  and  _289
REMARK  116  A    between atoms: _294  and  _296
REMARK  117  A    between atoms: _296  and  _297
REMARK  118  A    between atoms: _296  and  _299
REMARK  119  A    between atoms: _299  and  _300
REMARK  120  A    between atoms: _300  and  _301
REMARK  121  A    between atoms: _306  and  _308
REMARK  122  A    between atoms: _308  and  _309
REMARK  123  A    between atoms: _308  and  _311
REMARK  124  A    between atoms: _311  and  _312
REMARK  125  A    between atoms: _317  and  _319
REMARK  126  A    between atoms: _319  and  _320
REMARK  127  A    between atoms: _319  and  _322
REMARK  128  A    between atoms: _322  and  _323
REMARK  129  A    between atoms: _329  and  _331
REMARK  130  A    between atoms: _331  and  _332
REMARK  131  A    between atoms: _331  and  _334
REMARK  132  A    between atoms: _334  and  _335
REMARK  133  A    between atoms: _337  and  _339
REMARK  134  A    between atoms: _339  and  _340
REMARK  135  A    between atoms: _339  and  _342
REMARK  136  A    between atoms: _342  and  _343
REMARK  137  A    between atoms: _348  and  _349
REMARK  138  A    between atoms: _351  and  _353
REMARK  139  A    between atoms: _353  and  _354
REMARK  140  A    between atoms: _353  and  _356
REMARK  141  A    between atoms: _356  and  _357
REMARK  142  A    between atoms: _362  and  _364
REMARK  143  A    between atoms: _364  and  _365
REMARK  144  A    between atoms: _364  and  _367
REMARK  145  A    between atoms: _367  and  _368
REMARK  146  A    between atoms: _368  and  _369
REMARK  147  A    between atoms: _371  and  _373
REMARK  148  A    between atoms: _373  and  _374
REMARK  149  A    between atoms: _373  and  _376
REMARK  150  A    between atoms: _376  and  _377
REMARK  151  A    between atoms: _377  and  _378
REMARK  152  A    between atoms: _381  and  _383
REMARK  153  A    between atoms: _383  and  _384
REMARK  154  A    between atoms: _383  and  _386
REMARK  155  A    between atoms: _386  and  _387
REMARK  156  A    between atoms: _387  and  _388
REMARK  157  A    between atoms: _388  and  _389
REMARK  158  A    between atoms: _389  and  _390
REMARK  159  A    between atoms: _394  and  _396
REMARK  160  A    between atoms: _396  and  _397
REMARK  161  A    between atoms: _400  and  _402
REMARK  162  A    between atoms: _402  and  _403
REMARK  163  A    between atoms: _402  and  _405
REMARK  164  A    between atoms: _408  and  _410
REMARK  165  A    between atoms: _410  and  _411
REMARK  166  A    between atoms: _410  and  _413
REMARK  167  A    between atoms: _413  and  _414
REMARK  168  A    between atoms: _417  and  _419
REMARK  169  A    between atoms: _419  and  _420
REMARK  170  A    between atoms: _419  and  _422
REMARK  171  A    between atoms: _424  and  _426
REMARK  172  A    between atoms: _426  and  _427
REMARK  173  A    between atoms: _426  and  _429
REMARK  174  A    between atoms: _429  and  _430
REMARK  175  A    between atoms: _433  and  _435
REMARK  176  A    between atoms: _435  and  _436
REMARK  177  A    between atoms: _435  and  _438
REMARK  178  A    between atoms: _439  and  _440
REMARK  179  A    between atoms: _440  and  _441
REMARK  180  A    between atoms: _441  and  _442
REMARK  181  A    between atoms: _446  and  _448
REMARK  182  A    between atoms: _448  and  _449
REMARK  183  A    between atoms: _448  and  _451
REMARK  184  A    between atoms: _451  and  _452
REMARK  185  A    between atoms: _452  and  _453
REMARK  186  A    between atoms: _456  and  _458
REMARK  187  A    between atoms: _458  and  _459
REMARK  188  A    between atoms: _458  and  _461
REMARK  189  A    between atoms: _461  and  _462
REMARK  190  A    between atoms: _467  and  _469
REMARK  191  A    between atoms: _469  and  _470
REMARK  192  A    between atoms: _469  and  _472
REMARK  193  A    between atoms: _472  and  _473
REMARK  194  A    between atoms: _478  and  _480
REMARK  195  A    between atoms: _480  and  _481
REMARK  196  A    between atoms: _480  and  _483
REMARK  197  A    between atoms: _486  and  _488
REMARK  198  A    between atoms: _488  and  _489
REMARK  199  A    between atoms: _488  and  _491
REMARK  200  A    between atoms: _491  and  _492
REMARK  201  A    between atoms: _497  and  _498
REMARK  202  A    between atoms: _500  and  _502
REMARK  203  A    between atoms: _502  and  _503
REMARK  204  A    between atoms: _502  and  _505
REMARK  205  A    between atoms: _505  and  _506
REMARK  206  A    between atoms: _506  and  _507
REMARK  207  A    between atoms: _511  and  _512
REMARK  208  A    between atoms: _517  and  _519
REMARK  209  A    between atoms: _519  and  _520
REMARK  210  A    between atoms: _519  and  _522
REMARK  211  A    between atoms: _522  and  _523
REMARK  212  A    between atoms: _528  and  _529
REMARK  213  A    between atoms: _531  and  _533
REMARK  214  A    between atoms: _533  and  _534
REMARK  215  A    between atoms: _533  and  _536
REMARK  216  A    between atoms: _536  and  _537
REMARK  217  A    between atoms: _542  and  _544
REMARK  218  A    between atoms: _544  and  _545
REMARK  219  A    between atoms: _544  and  _547
REMARK  220  A    between atoms: _547  and  _548
REMARK  221  A    between atoms: _551  and  _553
REMARK  222  A    between atoms: _553  and  _554
REMARK  223  A    between atoms: _553  and  _556
REMARK  224  A    between atoms: _556  and  _557
REMARK  225  A    between atoms: _560  and  _562
REMARK  226  A    between atoms: _562  and  _563
REMARK  227  A    between atoms: _562  and  _565
REMARK  228  A    between atoms: _565  and  _566
REMARK  229  A    between atoms: _569  and  _571
REMARK  230  A    between atoms: _571  and  _572
REMARK  231  A    between atoms: _575  and  _577
REMARK  232  A    between atoms: _577  and  _578
REMARK  233  A    between atoms: _577  and  _580
REMARK  234  A    between atoms: _580  and  _581
REMARK  235  A    between atoms: _581  and  _582
REMARK  236  A    between atoms: _582  and  _583
REMARK  237  A    between atoms: _583  and  _584
REMARK                            x       y       z     vdW  Elec       q    Type
REMARK                         _______ _______ _______ _____ _____    ______ ____
ROOT
ATOM      1  O   HOH     1       0.832 -32.327 -17.959  0.00  0.00    +0.000 OA
ENDROOT
TORSDOF 0
