REMARK  Name = ../refined-set-2016/4ido/4ido_pocket.pdb
REMARK  244 active torsions:
REMARK  status: ('A' for Active; 'I' for Inactive)
REMARK    1  A    between atoms: _1  and  _3
REMARK    2  A    between atoms: _3  and  _4
REMARK    3  A    between atoms: _3  and  _6
REMARK    4  A    between atoms: _9  and  _11
REMARK    5  A    between atoms: _11  and  _12
REMARK    6  A    between atoms: _15  and  _17
REMARK    7  A    between atoms: _17  and  _18
REMARK    8  A    between atoms: _20  and  _22
REMARK    9  A    between atoms: _22  and  _23
REMARK   10  A    between atoms: _26  and  _28
REMARK   11  A    between atoms: _28  and  _29
REMARK   12  A    between atoms: _28  and  _31
REMARK   13  A    between atoms: _31  and  _32
REMARK   14  A    between atoms: _38  and  _40
REMARK   15  A    between atoms: _40  and  _41
REMARK   16  A    between atoms: _40  and  _43
REMARK   17  A    between atoms: _43  and  _44
REMARK   18  A    between atoms: _44  and  _45
REMARK   19  A    between atoms: _45  and  _46
REMARK   20  A    between atoms: _55  and  _57
REMARK   21  A    between atoms: _57  and  _58
REMARK   22  A    between atoms: _57  and  _60
REMARK   23  A    between atoms: _60  and  _61
REMARK   24  A    between atoms: _61  and  _62
REMARK   25  A    between atoms: _62  and  _63
REMARK   26  A    between atoms: _63  and  _64
REMARK   27  A    between atoms: _68  and  _70
REMARK   28  A    between atoms: _70  and  _71
REMARK   29  A    between atoms: _73  and  _75
REMARK   30  A    between atoms: _75  and  _76
REMARK   31  A    between atoms: _75  and  _78
REMARK   32  A    between atoms: _78  and  _79
REMARK   33  A    between atoms: _79  and  _80
REMARK   34  A    between atoms: _80  and  _81
REMARK   35  A    between atoms: _81  and  _82
REMARK   36  A    between atoms: _86  and  _88
REMARK   37  A    between atoms: _88  and  _89
REMARK   38  A    between atoms: _88  and  _91
REMARK   39  A    between atoms: _91  and  _92
REMARK   40  A    between atoms: _94  and  _96
REMARK   41  A    between atoms: _96  and  _97
REMARK   42  A    between atoms: _96  and  _99
REMARK   43  A    between atoms: _99  and  _100
REMARK   44  A    between atoms: _106  and  _108
REMARK   45  A    between atoms: _108  and  _109
REMARK   46  A    between atoms: _108  and  _111
REMARK   47  A    between atoms: _111  and  _112
REMARK   48  A    between atoms: _115  and  _117
REMARK   49  A    between atoms: _117  and  _118
REMARK   50  A    between atoms: _117  and  _120
REMARK   51  A    between atoms: _120  and  _121
REMARK   52  A    between atoms: _121  and  _122
REMARK   53  A    between atoms: _124  and  _126
REMARK   54  A    between atoms: _126  and  _127
REMARK   55  A    between atoms: _126  and  _129
REMARK   56  A    between atoms: _129  and  _130
REMARK   57  A    between atoms: _133  and  _135
REMARK   58  A    between atoms: _135  and  _136
REMARK   59  A    between atoms: _135  and  _138
REMARK   60  A    between atoms: _138  and  _139
REMARK   61  A    between atoms: _145  and  _147
REMARK   62  A    between atoms: _147  and  _148
REMARK   63  A    between atoms: _147  and  _150
REMARK   64  A    between atoms: _150  and  _151
REMARK   65  A    between atoms: _154  and  _156
REMARK   66  A    between atoms: _156  and  _157
REMARK   67  A    between atoms: _156  and  _159
REMARK   68  A    between atoms: _159  and  _160
REMARK   69  A    between atoms: _166  and  _168
REMARK   70  A    between atoms: _168  and  _169
REMARK   71  A    between atoms: _168  and  _171
REMARK   72  A    between atoms: _171  and  _172
REMARK   73  A    between atoms: _174  and  _176
REMARK   74  A    between atoms: _176  and  _177
REMARK   75  A    between atoms: _176  and  _179
REMARK   76  A    between atoms: _179  and  _180
REMARK   77  A    between atoms: _190  and  _192
REMARK   78  A    between atoms: _192  and  _193
REMARK   79  A    between atoms: _192  and  _195
REMARK   80  A    between atoms: _195  and  _196
REMARK   81  A    between atoms: _196  and  _197
REMARK   82  A    between atoms: _197  and  _198
REMARK   83  A    between atoms: _207  and  _209
REMARK   84  A    between atoms: _209  and  _210
REMARK   85  A    between atoms: _212  and  _214
REMARK   86  A    between atoms: _214  and  _215
REMARK   87  A    between atoms: _217  and  _219
REMARK   88  A    between atoms: _219  and  _220
REMARK   89  A    between atoms: _219  and  _222
REMARK   90  A    between atoms: _222  and  _223
REMARK   91  A    between atoms: _223  and  _224
REMARK   92  A    between atoms: _227  and  _229
REMARK   93  A    between atoms: _229  and  _230
REMARK   94  A    between atoms: _229  and  _232
REMARK   95  A    between atoms: _232  and  _233
REMARK   96  A    between atoms: _233  and  _234
REMARK   97  A    between atoms: _234  and  _235
REMARK   98  A    between atoms: _244  and  _246
REMARK   99  A    between atoms: _246  and  _247
REMARK  100  A    between atoms: _246  and  _249
REMARK  101  A    between atoms: _249  and  _250
REMARK  102  A    between atoms: _250  and  _251
REMARK  103  A    between atoms: _254  and  _256
REMARK  104  A    between atoms: _256  and  _257
REMARK  105  A    between atoms: _256  and  _259
REMARK  106  A    between atoms: _259  and  _260
REMARK  107  A    between atoms: _263  and  _265
REMARK  108  A    between atoms: _265  and  _266
REMARK  109  A    between atoms: _265  and  _268
REMARK  110  A    between atoms: _268  and  _269
REMARK  111  A    between atoms: _272  and  _274
REMARK  112  A    between atoms: _274  and  _275
REMARK  113  A    between atoms: _274  and  _277
REMARK  114  A    between atoms: _277  and  _278
REMARK  115  A    between atoms: _281  and  _283
REMARK  116  A    between atoms: _283  and  _284
REMARK  117  A    between atoms: _283  and  _286
REMARK  118  A    between atoms: _286  and  _287
REMARK  119  A    between atoms: _287  and  _288
REMARK  120  A    between atoms: _293  and  _295
REMARK  121  A    between atoms: _295  and  _296
REMARK  122  A    between atoms: _298  and  _300
REMARK  123  A    between atoms: _300  and  _301
REMARK  124  A    between atoms: _300  and  _303
REMARK  125  A    between atoms: _303  and  _304
REMARK  126  A    between atoms: _307  and  _309
REMARK  127  A    between atoms: _309  and  _310
REMARK  128  A    between atoms: _309  and  _312
REMARK  129  A    between atoms: _312  and  _313
REMARK  130  A    between atoms: _318  and  _320
REMARK  131  A    between atoms: _320  and  _321
REMARK  132  A    between atoms: _320  and  _323
REMARK  133  A    between atoms: _323  and  _324
REMARK  134  A    between atoms: _327  and  _329
REMARK  135  A    between atoms: _329  and  _330
REMARK  136  A    between atoms: _329  and  _332
REMARK  137  A    between atoms: _332  and  _333
REMARK  138  A    between atoms: _335  and  _337
REMARK  139  A    between atoms: _337  and  _338
REMARK  140  A    between atoms: _337  and  _340
REMARK  141  A    between atoms: _340  and  _341
REMARK  142  A    between atoms: _341  and  _342
REMARK  143  A    between atoms: _347  and  _349
REMARK  144  A    between atoms: _349  and  _350
REMARK  145  A    between atoms: _349  and  _352
REMARK  146  A    between atoms: _352  and  _353
REMARK  147  A    between atoms: _356  and  _358
REMARK  148  A    between atoms: _358  and  _359
REMARK  149  A    between atoms: _358  and  _361
REMARK  150  A    between atoms: _364  and  _366
REMARK  151  A    between atoms: _366  and  _367
REMARK  152  A    between atoms: _366  and  _369
REMARK  153  A    between atoms: _369  and  _370
REMARK  154  A    between atoms: _370  and  _371
REMARK  155  A    between atoms: _371  and  _372
REMARK  156  A    between atoms: _381  and  _383
REMARK  157  A    between atoms: _383  and  _384
REMARK  158  A    between atoms: _383  and  _386
REMARK  159  A    between atoms: _386  and  _387
REMARK  160  A    between atoms: _390  and  _392
REMARK  161  A    between atoms: _392  and  _393
REMARK  162  A    between atoms: _392  and  _395
REMARK  163  A    between atoms: _395  and  _396
REMARK  164  A    between atoms: _406  and  _408
REMARK  165  A    between atoms: _408  and  _409
REMARK  166  A    between atoms: _408  and  _411
REMARK  167  A    between atoms: _411  and  _412
REMARK  168  A    between atoms: _416  and  _417
REMARK  169  A    between atoms: _422  and  _424
REMARK  170  A    between atoms: _424  and  _425
REMARK  171  A    between atoms: _424  and  _427
REMARK  172  A    between atoms: _427  and  _428
REMARK  173  A    between atoms: _434  and  _435
REMARK  174  A    between atoms: _440  and  _442
REMARK  175  A    between atoms: _442  and  _443
REMARK  176  A    between atoms: _445  and  _447
REMARK  177  A    between atoms: _447  and  _448
REMARK  178  A    between atoms: _447  and  _450
REMARK  179  A    between atoms: _450  and  _451
REMARK  180  A    between atoms: _454  and  _456
REMARK  181  A    between atoms: _456  and  _457
REMARK  182  A    between atoms: _456  and  _459
REMARK  183  A    between atoms: _459  and  _460
REMARK  184  A    between atoms: _460  and  _461
REMARK  185  A    between atoms: _461  and  _462
REMARK  186  A    between atoms: _462  and  _463
REMARK  187  A    between atoms: _467  and  _469
REMARK  188  A    between atoms: _469  and  _470
REMARK  189  A    between atoms: _469  and  _472
REMARK  190  A    between atoms: _475  and  _477
REMARK  191  A    between atoms: _477  and  _478
REMARK  192  A    between atoms: _481  and  _483
REMARK  193  A    between atoms: _483  and  _484
REMARK  194  A    between atoms: _483  and  _486
REMARK  195  A    between atoms: _486  and  _487
REMARK  196  A    between atoms: _490  and  _492
REMARK  197  A    between atoms: _492  and  _493
REMARK  198  A    between atoms: _492  and  _495
REMARK  199  A    between atoms: _495  and  _496
REMARK  200  A    between atoms: _502  and  _503
REMARK  201  A    between atoms: _508  and  _510
REMARK  202  A    between atoms: _510  and  _511
REMARK  203  A    between atoms: _510  and  _513
REMARK  204  A    between atoms: _513  and  _514
REMARK  205  A    between atoms: _520  and  _522
REMARK  206  A    between atoms: _522  and  _523
REMARK  207  A    between atoms: _522  and  _525
REMARK  208  A    between atoms: _525  and  _526
REMARK  209  A    between atoms: _529  and  _531
REMARK  210  A    between atoms: _531  and  _532
REMARK  211  A    between atoms: _534  and  _536
REMARK  212  A    between atoms: _536  and  _537
REMARK  213  A    between atoms: _536  and  _539
REMARK  214  A    between atoms: _539  and  _540
REMARK  215  A    between atoms: _543  and  _545
REMARK  216  A    between atoms: _545  and  _546
REMARK  217  A    between atoms: _545  and  _548
REMARK  218  A    between atoms: _548  and  _549
REMARK  219  A    between atoms: _555  and  _557
REMARK  220  A    between atoms: _557  and  _558
REMARK  221  A    between atoms: _557  and  _560
REMARK  222  A    between atoms: _560  and  _561
REMARK  223  A    between atoms: _561  and  _562
REMARK  224  A    between atoms: _567  and  _569
REMARK  225  A    between atoms: _569  and  _570
REMARK  226  A    between atoms: _569  and  _572
REMARK  227  A    between atoms: _572  and  _573
REMARK  228  A    between atoms: _576  and  _578
REMARK  229  A    between atoms: _578  and  _579
REMARK  230  A    between atoms: _578  and  _581
REMARK  231  A    between atoms: _581  and  _582
REMARK  232  A    between atoms: _584  and  _586
REMARK  233  A    between atoms: _586  and  _587
REMARK  234  A    between atoms: _586  and  _589
REMARK  235  A    between atoms: _589  and  _590
REMARK  236  A    between atoms: _596  and  _598
REMARK  237  A    between atoms: _598  and  _599
REMARK  238  A    between atoms: _598  and  _601
REMARK  239  A    between atoms: _601  and  _602
REMARK  240  A    between atoms: _607  and  _608
REMARK  241  A    between atoms: _610  and  _612
REMARK  242  A    between atoms: _612  and  _613
REMARK  243  A    between atoms: _612  and  _615
REMARK  244  A    between atoms: _615  and  _616
REMARK                            x       y       z     vdW  Elec       q    Type
REMARK                         _______ _______ _______ _____ _____    ______ ____
ROOT
ATOM      1  C   GLY A   8     -21.762  -4.517  40.784  0.00  0.00    +0.243 C 
ATOM      2  N   LYS A   9     -22.709  -5.322  41.255  0.00  0.00    -0.297 N 
ATOM      3  H   LYS A   9     -23.325  -4.984  42.022  0.00  0.00    +0.150 HD
ATOM      4  O   GLY A   8     -21.023  -4.832  39.845  0.00  0.00    -0.273 OA
ENDROOT
BRANCH   1   5
ATOM      5  CA  GLY A   8     -21.668  -3.138  41.415  0.00  0.00    +0.176 C 
BRANCH   5   8
ATOM      6  C   LYS A   7     -21.455  -3.250  43.838  0.00  0.00    +0.241 C 
ATOM      7  O   LYS A   7     -20.353  -3.781  43.759  0.00  0.00    -0.273 OA
ATOM      8  N   GLY A   8     -22.193  -2.963  42.767  0.00  0.00    -0.295 N 
ATOM      9  H   GLY A   8     -23.162  -2.607  42.896  0.00  0.00    +0.150 HD
BRANCH   6  10
ATOM     10  CA  LYS A   7     -22.033  -2.897  45.218  0.00  0.00    +0.149 C 
BRANCH  10  13
ATOM     11  C   ARG A   6     -23.971  -1.478  45.597  0.00  0.00    +0.241 C 
ATOM     12  O   ARG A   6     -23.246  -0.522  45.905  0.00  0.00    -0.273 OA
ATOM     13  N   LYS A   7     -23.473  -2.646  45.206  0.00  0.00    -0.297 N 
ATOM     14  H   LYS A   7     -24.119  -3.395  44.886  0.00  0.00    +0.150 HD
BRANCH  11  15
ATOM     15  CA  ARG A   6     -25.519  -1.337  45.644  0.00  0.00    +0.149 C 
BRANCH  15  18
ATOM     16  C   PHE A   5     -26.117  -3.174  47.221  0.00  0.00    +0.241 C 
ATOM     17  O   PHE A   5     -25.304  -2.825  48.087  0.00  0.00    -0.273 OA
ATOM     18  N   ARG A   6     -26.243  -2.548  46.045  0.00  0.00    -0.297 N 
ATOM     19  H   ARG A   6     -26.910  -2.954  45.358  0.00  0.00    +0.150 HD
BRANCH  16  20
ATOM     20  CA  PHE A   5     -27.004  -4.438  47.429  0.00  0.00    +0.153 C 
BRANCH  20  22
ATOM     21  C   ALA A   4     -25.370  -6.043  48.216  0.00  0.00    +0.241 C 
ATOM     22  N   PHE A   5     -26.466  -5.325  48.439  0.00  0.00    -0.297 N 
ATOM     23  H   PHE A   5     -26.947  -5.402  49.358  0.00  0.00    +0.150 HD
ATOM     24  O   ALA A   4     -24.698  -5.957  47.193  0.00  0.00    -0.273 OA
BRANCH  21  25
ATOM     25  CA  ALA A   4     -24.969  -6.983  49.326  0.00  0.00    +0.149 C 
ATOM     26  CB  ALA A   4     -24.041  -6.263  50.325  0.00  0.00    +0.031 C 
BRANCH  25  28
ATOM     27  C   GLY A   3     -24.960  -8.992  47.953  0.00  0.00    +0.243 C 
ATOM     28  N   ALA A   4     -24.348  -8.187  48.814  0.00  0.00    -0.297 N 
ATOM     29  H   ALA A   4     -23.388  -8.430  49.132  0.00  0.00    +0.150 HD
ATOM     30  O   GLY A   3     -26.037  -8.723  47.394  0.00  0.00    -0.273 OA
BRANCH  27  31
ATOM     31  CA  GLY A   3     -24.242 -10.282  47.652  0.00  0.00    +0.176 C 
BRANCH  31  33
ATOM     32  C   ALA A   2     -24.094 -11.588  45.636  0.00  0.00    +0.241 C 
ATOM     33  N   GLY A   3     -24.841 -10.944  46.521  0.00  0.00    -0.295 N 
ATOM     34  H   GLY A   3     -25.873 -10.916  46.398  0.00  0.00    +0.150 HD
ATOM     35  O   ALA A   2     -22.877 -11.737  45.768  0.00  0.00    -0.273 OA
BRANCH  32  36
ATOM     36  CA  ALA A   2     -24.836 -12.206  44.465  0.00  0.00    +0.149 C 
ATOM     37  CB  ALA A   2     -25.520 -13.520  44.890  0.00  0.00    +0.031 C 
BRANCH  36  39
ATOM     38  C   VAL A   1     -24.390 -12.526  42.103  0.00  0.00    +0.238 C 
ATOM     39  N   ALA A   2     -23.932 -12.449  43.346  0.00  0.00    -0.297 N 
ATOM     40  H   ALA A   2     -22.914 -12.564  43.525  0.00  0.00    +0.150 HD
ATOM     41  O   VAL A   1     -25.567 -12.317  41.826  0.00  0.00    -0.274 OA
BRANCH  38  42
ATOM     42  CA  VAL A   1     -23.388 -12.938  41.019  0.00  0.00    +0.145 C 
BRANCH  42  43
ATOM     43  CB  VAL A   1     -22.786 -11.694  40.340  0.00  0.00    +0.025 C 
ATOM     44  CG2 VAL A   1     -21.955 -10.875  41.350  0.00  0.00    +0.002 C 
ATOM     45  CG1 VAL A   1     -23.878 -10.841  39.764  0.00  0.00    +0.002 C 
ENDBRANCH  42  43
BRANCH  42  46
ATOM     46  N   VAL A   1     -24.073 -13.820  40.070  0.00  0.00    -0.238 NA
ATOM     47  H   VAL A   1     -24.946 -13.489  39.611  0.00  0.00    +0.142 HD
ENDBRANCH  42  46
ENDBRANCH  38  42
ENDBRANCH  36  39
ENDBRANCH  32  36
ENDBRANCH  31  33
ENDBRANCH  27  31
ENDBRANCH  25  28
ENDBRANCH  21  25
ENDBRANCH  20  22
BRANCH  20  48
ATOM     48  CB  PHE A   5     -28.500  -4.138  47.723  0.00  0.00    +0.055 C 
BRANCH  48  49
ATOM     49  CG  PHE A   5     -28.740  -2.950  48.627  0.00  0.00    -0.020 A 
ATOM     50  CD2 PHE A   5     -28.369  -2.965  49.967  0.00  0.00    -0.004 A 
ATOM     51  CE2 PHE A   5     -28.621  -1.862  50.799  0.00  0.00    -0.000 A 
ATOM     52  CZ  PHE A   5     -29.237  -0.732  50.291  0.00  0.00    -0.000 A 
ATOM     53  CE1 PHE A   5     -29.623  -0.707  48.965  0.00  0.00    -0.000 A 
ATOM     54  CD1 PHE A   5     -29.388  -1.825  48.137  0.00  0.00    -0.004 A 
ENDBRANCH  48  49
ENDBRANCH  20  48
ENDBRANCH  16  20
ENDBRANCH  15  18
BRANCH  15  55
ATOM     55  CB  ARG A   6     -25.860  -0.135  46.533  0.00  0.00    +0.033 C 
BRANCH  55  56
ATOM     56  CG  ARG A   6     -27.323   0.219  46.694  0.00  0.00    +0.045 C 
BRANCH  56  57
ATOM     57  CD  ARG A   6     -27.975   0.909  45.540  0.00  0.00    +0.174 C 
BRANCH  57  58
ATOM     58  NE  ARG A   6     -28.040   0.067  44.352  0.00  0.00    -0.265 N 
ATOM     59  HE  ARG A   6     -28.344  -0.922  44.461  0.00  0.00    +0.259 HD
ATOM     60  CZ  ARG A   6     -27.729   0.504  43.134  0.00  0.00    +0.342 C 
ATOM     61  NH2 ARG A   6     -27.355   1.774  42.963  0.00  0.00    -0.292 N 
ATOM     62 HH21 ARG A   6     -27.308   2.417  43.779  0.00  0.00    +0.255 HD
ATOM     63 HH22 ARG A   6     -27.111   2.121  42.013  0.00  0.00    +0.255 HD
ATOM     64  NH1 ARG A   6     -27.792  -0.319  42.094  0.00  0.00    -0.292 N 
ATOM     65 HH11 ARG A   6     -28.085  -1.308  42.230  0.00  0.00    +0.255 HD
ATOM     66 HH12 ARG A   6     -27.548   0.025  41.143  0.00  0.00    +0.255 HD
ENDBRANCH  57  58
ENDBRANCH  56  57
ENDBRANCH  55  56
ENDBRANCH  15  55
ENDBRANCH  11  15
ENDBRANCH  10  13
BRANCH  10  67
ATOM     67  CB  LYS A   7     -21.672  -3.998  46.196  0.00  0.00    +0.029 C 
BRANCH  67  68
ATOM     68  CG  LYS A   7     -22.088  -3.792  47.649  0.00  0.00    +0.000 C 
BRANCH  68  69
ATOM     69  CD  LYS A   7     -21.466  -2.563  48.292  0.00  0.00    -0.024 C 
BRANCH  69  70
ATOM     70  CE  LYS A   7     -21.631  -2.661  49.815  0.00  0.00    -0.086 C 
BRANCH  70  71
ATOM     71  NZ  LYS A   7     -21.149  -1.410  50.474  0.00  0.00    +0.380 N 
ATOM     72  HZ1 LYS A   7     -21.268  -1.494  51.504  0.00  0.00    -0.089 HD
ATOM     73  HZ2 LYS A   7     -20.143  -1.267  50.251  0.00  0.00    -0.089 HD
ATOM     74  HZ3 LYS A   7     -21.701  -0.601  50.125  0.00  0.00    -0.089 HD
ENDBRANCH  70  71
ENDBRANCH  69  70
ENDBRANCH  68  69
ENDBRANCH  67  68
ENDBRANCH  10  67
ENDBRANCH   6  10
ENDBRANCH   5   8
ENDBRANCH   1   5
BRANCH   2  75
ATOM     75  CA  LYS A   9     -22.909  -6.673  40.722  0.00  0.00    +0.149 C 
BRANCH  75  76
ATOM     76  C   LYS A   9     -23.368  -6.638  39.246  0.00  0.00    +0.241 C 
ATOM     77  N   SER A  10     -24.377  -5.826  38.952  0.00  0.00    -0.295 N 
ATOM     78  H   SER A  10     -24.823  -5.274  39.712  0.00  0.00    +0.150 HD
ATOM     79  O   LYS A   9     -22.807  -7.328  38.388  0.00  0.00    -0.273 OA
BRANCH  77  80
ATOM     80  CA  SER A  10     -24.876  -5.690  37.579  0.00  0.00    +0.178 C 
BRANCH  80  81
ATOM     81  C   SER A  10     -23.847  -5.124  36.568  0.00  0.00    +0.243 C 
ATOM     82  N   PHE A  11     -23.100  -4.125  37.009  0.00  0.00    -0.297 N 
ATOM     83  H   PHE A  11     -23.349  -3.712  37.931  0.00  0.00    +0.150 HD
ATOM     84  O   SER A  10     -23.739  -5.592  35.436  0.00  0.00    -0.273 OA
BRANCH  82  85
ATOM     85  CA  PHE A  11     -21.954  -3.555  36.306  0.00  0.00    +0.153 C 
BRANCH  85  86
ATOM     86  C   PHE A  11     -20.967  -4.670  35.904  0.00  0.00    +0.241 C 
ATOM     87  N   LEU A  12     -20.621  -5.518  36.861  0.00  0.00    -0.297 N 
ATOM     88  H   LEU A  12     -21.012  -5.403  37.818  0.00  0.00    +0.150 HD
ATOM     89  O   PHE A  11     -20.528  -4.762  34.744  0.00  0.00    -0.273 OA
BRANCH  87  90
ATOM     90  CA  LEU A  12     -19.695  -6.614  36.585  0.00  0.00    +0.149 C 
BRANCH  90  91
ATOM     91  C   LEU A  12     -20.279  -7.566  35.554  0.00  0.00    +0.241 C 
ATOM     92  N   MET A  13     -21.550  -7.920  35.729  0.00  0.00    -0.297 N 
ATOM     93  H   MET A  13     -22.085  -7.522  36.527  0.00  0.00    +0.150 HD
ATOM     94  O   LEU A  12     -19.594  -7.949  34.605  0.00  0.00    -0.273 OA
BRANCH  92  95
ATOM     95  CA  MET A  13     -22.208  -8.855  34.824  0.00  0.00    +0.149 C 
BRANCH  95  96
ATOM     96  C   MET A  13     -22.189  -8.328  33.404  0.00  0.00    +0.241 C 
ATOM     97  N   ASP A  14     -22.283  -7.009  33.266  0.00  0.00    -0.297 N 
ATOM     98  H   ASP A  14     -22.357  -6.407  34.111  0.00  0.00    +0.150 HD
ATOM     99  O   MET A  13     -22.110  -9.094  32.453  0.00  0.00    -0.273 OA
BRANCH  97 100
ATOM    100  CA  ASP A  14     -22.283  -6.402  31.949  0.00  0.00    +0.160 C 
BRANCH 100 101
ATOM    101  C   ASP A  14     -20.910  -6.464  31.292  0.00  0.00    +0.241 C 
ATOM    102  N   PHE A  15     -19.836  -6.410  32.085  0.00  0.00    -0.298 N 
ATOM    103  H   PHE A  15     -19.940  -6.155  33.088  0.00  0.00    +0.150 HD
ATOM    104  O   ASP A  14     -20.828  -6.554  30.075  0.00  0.00    -0.273 OA
BRANCH 102 105
ATOM    105  CA  PHE A  15     -18.512  -6.711  31.536  0.00  0.00    +0.141 C 
BRANCH 105 106
ATOM    106  C   PHE A  15     -18.380  -8.222  31.211  0.00  0.00    +0.227 C 
ATOM    107  O   PHE A  15     -17.762  -8.588  30.219  0.00  0.00    -0.286 OA
ENDBRANCH 105 106
BRANCH 105 108
ATOM    108  CB  PHE A  15     -17.370  -6.183  32.424  0.00  0.00    +0.054 C 
BRANCH 108 109
ATOM    109  CG  PHE A  15     -17.086  -4.704  32.223  0.00  0.00    -0.020 A 
ATOM    110  CD2 PHE A  15     -17.434  -3.777  33.201  0.00  0.00    -0.004 A 
ATOM    111  CE2 PHE A  15     -17.187  -2.420  33.009  0.00  0.00    -0.000 A 
ATOM    112  CZ  PHE A  15     -16.605  -1.975  31.815  0.00  0.00    -0.000 A 
ATOM    113  CE1 PHE A  15     -16.264  -2.892  30.844  0.00  0.00    -0.000 A 
ATOM    114  CD1 PHE A  15     -16.513  -4.244  31.043  0.00  0.00    -0.004 A 
ENDBRANCH 108 109
ENDBRANCH 105 108
ENDBRANCH 102 105
ENDBRANCH 100 101
BRANCH 100 115
ATOM    115  CB  ASP A  14     -22.851  -4.984  31.983  0.00  0.00    +0.143 C 
BRANCH 115 116
ATOM    116  CG  ASP A  14     -24.337  -4.966  32.241  0.00  0.00    +0.367 C 
ATOM    117  OD2 ASP A  14     -24.874  -3.874  32.479  0.00  0.00    -0.246 OA
ATOM    118  OD1 ASP A  14     -24.978  -6.039  32.212  0.00  0.00    -0.246 OA
ENDBRANCH 115 116
ENDBRANCH 100 115
ENDBRANCH  97 100
ENDBRANCH  95  96
BRANCH  95 119
ATOM    119  CB  MET A  13     -23.655  -9.106  35.245  0.00  0.00    +0.041 C 
BRANCH 119 120
ATOM    120  CG  MET A  13     -23.844 -10.038  36.434  0.00  0.00    +0.060 C 
BRANCH 120 121
ATOM    121  SD  MET A  13     -22.997 -11.637  36.366  0.00  0.00    -0.139 S 
ATOM    122  CE  MET A  13     -23.486 -12.289  34.790  0.00  0.00    +0.069 C 
ENDBRANCH 120 121
ENDBRANCH 119 120
ENDBRANCH  95 119
ENDBRANCH  92  95
ENDBRANCH  90  91
BRANCH  90 123
ATOM    123  CB  LEU A  12     -19.330  -7.378  37.871  0.00  0.00    +0.029 C 
BRANCH 123 124
ATOM    124  CG  LEU A  12     -18.491  -8.661  37.693  0.00  0.00    +0.002 C 
ATOM    125  CD2 LEU A  12     -18.593  -9.585  38.901  0.00  0.00    +0.000 C 
ATOM    126  CD1 LEU A  12     -17.039  -8.334  37.414  0.00  0.00    +0.000 C 
ENDBRANCH 123 124
ENDBRANCH  90 123
ENDBRANCH  87  90
ENDBRANCH  85  86
BRANCH  85 127
ATOM    127  CB  PHE A  11     -21.303  -2.579  37.299  0.00  0.00    +0.055 C 
BRANCH 127 128
ATOM    128  CG  PHE A  11     -20.104  -1.831  36.787  0.00  0.00    -0.020 A 
ATOM    129  CD2 PHE A  11     -18.823  -2.303  37.017  0.00  0.00    -0.004 A 
ATOM    130  CE2 PHE A  11     -17.713  -1.573  36.595  0.00  0.00    -0.000 A 
ATOM    131  CZ  PHE A  11     -17.886  -0.356  35.953  0.00  0.00    -0.000 A 
ATOM    132  CE1 PHE A  11     -19.163   0.127  35.728  0.00  0.00    -0.000 A 
ATOM    133  CD1 PHE A  11     -20.257  -0.590  36.169  0.00  0.00    -0.004 A 
ENDBRANCH 127 128
ENDBRANCH  85 127
ENDBRANCH  82  85
ENDBRANCH  80  81
BRANCH  80 134
ATOM    134  CB  SER A  10     -26.144  -4.846  37.586  0.00  0.00    +0.166 C 
BRANCH 134 135
ATOM    135  OG  SER A  10     -27.194  -5.563  38.213  0.00  0.00    -0.380 OA
ATOM    136  H   SER A  10     -26.936  -5.776  39.145  0.00  0.00    +0.211 HD
ENDBRANCH 134 135
ENDBRANCH  80 134
ENDBRANCH  77  80
ENDBRANCH  75  76
BRANCH  75 137
ATOM    137  CB  LYS A   9     -23.929  -7.444  41.576  0.00  0.00    +0.029 C 
BRANCH 137 138
ATOM    138  CG  LYS A   9     -23.515  -7.693  43.038  0.00  0.00    +0.000 C 
BRANCH 138 139
ATOM    139  CD  LYS A   9     -24.512  -8.684  43.738  0.00  0.00    -0.024 C 
BRANCH 139 140
ATOM    140  CE  LYS A   9     -25.905  -8.040  43.855  0.00  0.00    -0.086 C 
BRANCH 140 141
ATOM    141  NZ  LYS A   9     -25.873  -6.642  44.465  0.00  0.00    +0.380 N 
ATOM    142  HZ1 LYS A   9     -25.468  -6.692  45.422  0.00  0.00    -0.089 HD
ATOM    143  HZ2 LYS A   9     -26.841  -6.265  44.516  0.00  0.00    -0.089 HD
ATOM    144  HZ3 LYS A   9     -25.288  -6.020  43.872  0.00  0.00    -0.089 HD
ENDBRANCH 140 141
ENDBRANCH 139 140
ENDBRANCH 138 139
ENDBRANCH 137 138
ENDBRANCH  75 137
ENDBRANCH   2  75
TORSDOF 60
REMARK  Name = ../refined-set-2016/4ido/4ido_pocket.pdb
REMARK  244 active torsions:
REMARK  status: ('A' for Active; 'I' for Inactive)
REMARK    1  A    between atoms: _1  and  _3
REMARK    2  A    between atoms: _3  and  _4
REMARK    3  A    between atoms: _3  and  _6
REMARK    4  A    between atoms: _9  and  _11
REMARK    5  A    between atoms: _11  and  _12
REMARK    6  A    between atoms: _15  and  _17
REMARK    7  A    between atoms: _17  and  _18
REMARK    8  A    between atoms: _20  and  _22
REMARK    9  A    between atoms: _22  and  _23
REMARK   10  A    between atoms: _26  and  _28
REMARK   11  A    between atoms: _28  and  _29
REMARK   12  A    between atoms: _28  and  _31
REMARK   13  A    between atoms: _31  and  _32
REMARK   14  A    between atoms: _38  and  _40
REMARK   15  A    between atoms: _40  and  _41
REMARK   16  A    between atoms: _40  and  _43
REMARK   17  A    between atoms: _43  and  _44
REMARK   18  A    between atoms: _44  and  _45
REMARK   19  A    between atoms: _45  and  _46
REMARK   20  A    between atoms: _55  and  _57
REMARK   21  A    between atoms: _57  and  _58
REMARK   22  A    between atoms: _57  and  _60
REMARK   23  A    between atoms: _60  and  _61
REMARK   24  A    between atoms: _61  and  _62
REMARK   25  A    between atoms: _62  and  _63
REMARK   26  A    between atoms: _63  and  _64
REMARK   27  A    between atoms: _68  and  _70
REMARK   28  A    between atoms: _70  and  _71
REMARK   29  A    between atoms: _73  and  _75
REMARK   30  A    between atoms: _75  and  _76
REMARK   31  A    between atoms: _75  and  _78
REMARK   32  A    between atoms: _78  and  _79
REMARK   33  A    between atoms: _79  and  _80
REMARK   34  A    between atoms: _80  and  _81
REMARK   35  A    between atoms: _81  and  _82
REMARK   36  A    between atoms: _86  and  _88
REMARK   37  A    between atoms: _88  and  _89
REMARK   38  A    between atoms: _88  and  _91
REMARK   39  A    between atoms: _91  and  _92
REMARK   40  A    between atoms: _94  and  _96
REMARK   41  A    between atoms: _96  and  _97
REMARK   42  A    between atoms: _96  and  _99
REMARK   43  A    between atoms: _99  and  _100
REMARK   44  A    between atoms: _106  and  _108
REMARK   45  A    between atoms: _108  and  _109
REMARK   46  A    between atoms: _108  and  _111
REMARK   47  A    between atoms: _111  and  _112
REMARK   48  A    between atoms: _115  and  _117
REMARK   49  A    between atoms: _117  and  _118
REMARK   50  A    between atoms: _117  and  _120
REMARK   51  A    between atoms: _120  and  _121
REMARK   52  A    between atoms: _121  and  _122
REMARK   53  A    between atoms: _124  and  _126
REMARK   54  A    between atoms: _126  and  _127
REMARK   55  A    between atoms: _126  and  _129
REMARK   56  A    between atoms: _129  and  _130
REMARK   57  A    between atoms: _133  and  _135
REMARK   58  A    between atoms: _135  and  _136
REMARK   59  A    between atoms: _135  and  _138
REMARK   60  A    between atoms: _138  and  _139
REMARK   61  A    between atoms: _145  and  _147
REMARK   62  A    between atoms: _147  and  _148
REMARK   63  A    between atoms: _147  and  _150
REMARK   64  A    between atoms: _150  and  _151
REMARK   65  A    between atoms: _154  and  _156
REMARK   66  A    between atoms: _156  and  _157
REMARK   67  A    between atoms: _156  and  _159
REMARK   68  A    between atoms: _159  and  _160
REMARK   69  A    between atoms: _166  and  _168
REMARK   70  A    between atoms: _168  and  _169
REMARK   71  A    between atoms: _168  and  _171
REMARK   72  A    between atoms: _171  and  _172
REMARK   73  A    between atoms: _174  and  _176
REMARK   74  A    between atoms: _176  and  _177
REMARK   75  A    between atoms: _176  and  _179
REMARK   76  A    between atoms: _179  and  _180
REMARK   77  A    between atoms: _190  and  _192
REMARK   78  A    between atoms: _192  and  _193
REMARK   79  A    between atoms: _192  and  _195
REMARK   80  A    between atoms: _195  and  _196
REMARK   81  A    between atoms: _196  and  _197
REMARK   82  A    between atoms: _197  and  _198
REMARK   83  A    between atoms: _207  and  _209
REMARK   84  A    between atoms: _209  and  _210
REMARK   85  A    between atoms: _212  and  _214
REMARK   86  A    between atoms: _214  and  _215
REMARK   87  A    between atoms: _217  and  _219
REMARK   88  A    between atoms: _219  and  _220
REMARK   89  A    between atoms: _219  and  _222
REMARK   90  A    between atoms: _222  and  _223
REMARK   91  A    between atoms: _223  and  _224
REMARK   92  A    between atoms: _227  and  _229
REMARK   93  A    between atoms: _229  and  _230
REMARK   94  A    between atoms: _229  and  _232
REMARK   95  A    between atoms: _232  and  _233
REMARK   96  A    between atoms: _233  and  _234
REMARK   97  A    between atoms: _234  and  _235
REMARK   98  A    between atoms: _244  and  _246
REMARK   99  A    between atoms: _246  and  _247
REMARK  100  A    between atoms: _246  and  _249
REMARK  101  A    between atoms: _249  and  _250
REMARK  102  A    between atoms: _250  and  _251
REMARK  103  A    between atoms: _254  and  _256
REMARK  104  A    between atoms: _256  and  _257
REMARK  105  A    between atoms: _256  and  _259
REMARK  106  A    between atoms: _259  and  _260
REMARK  107  A    between atoms: _263  and  _265
REMARK  108  A    between atoms: _265  and  _266
REMARK  109  A    between atoms: _265  and  _268
REMARK  110  A    between atoms: _268  and  _269
REMARK  111  A    between atoms: _272  and  _274
REMARK  112  A    between atoms: _274  and  _275
REMARK  113  A    between atoms: _274  and  _277
REMARK  114  A    between atoms: _277  and  _278
REMARK  115  A    between atoms: _281  and  _283
REMARK  116  A    between atoms: _283  and  _284
REMARK  117  A    between atoms: _283  and  _286
REMARK  118  A    between atoms: _286  and  _287
REMARK  119  A    between atoms: _287  and  _288
REMARK  120  A    between atoms: _293  and  _295
REMARK  121  A    between atoms: _295  and  _296
REMARK  122  A    between atoms: _298  and  _300
REMARK  123  A    between atoms: _300  and  _301
REMARK  124  A    between atoms: _300  and  _303
REMARK  125  A    between atoms: _303  and  _304
REMARK  126  A    between atoms: _307  and  _309
REMARK  127  A    between atoms: _309  and  _310
REMARK  128  A    between atoms: _309  and  _312
REMARK  129  A    between atoms: _312  and  _313
REMARK  130  A    between atoms: _318  and  _320
REMARK  131  A    between atoms: _320  and  _321
REMARK  132  A    between atoms: _320  and  _323
REMARK  133  A    between atoms: _323  and  _324
REMARK  134  A    between atoms: _327  and  _329
REMARK  135  A    between atoms: _329  and  _330
REMARK  136  A    between atoms: _329  and  _332
REMARK  137  A    between atoms: _332  and  _333
REMARK  138  A    between atoms: _335  and  _337
REMARK  139  A    between atoms: _337  and  _338
REMARK  140  A    between atoms: _337  and  _340
REMARK  141  A    between atoms: _340  and  _341
REMARK  142  A    between atoms: _341  and  _342
REMARK  143  A    between atoms: _347  and  _349
REMARK  144  A    between atoms: _349  and  _350
REMARK  145  A    between atoms: _349  and  _352
REMARK  146  A    between atoms: _352  and  _353
REMARK  147  A    between atoms: _356  and  _358
REMARK  148  A    between atoms: _358  and  _359
REMARK  149  A    between atoms: _358  and  _361
REMARK  150  A    between atoms: _364  and  _366
REMARK  151  A    between atoms: _366  and  _367
REMARK  152  A    between atoms: _366  and  _369
REMARK  153  A    between atoms: _369  and  _370
REMARK  154  A    between atoms: _370  and  _371
REMARK  155  A    between atoms: _371  and  _372
REMARK  156  A    between atoms: _381  and  _383
REMARK  157  A    between atoms: _383  and  _384
REMARK  158  A    between atoms: _383  and  _386
REMARK  159  A    between atoms: _386  and  _387
REMARK  160  A    between atoms: _390  and  _392
REMARK  161  A    between atoms: _392  and  _393
REMARK  162  A    between atoms: _392  and  _395
REMARK  163  A    between atoms: _395  and  _396
REMARK  164  A    between atoms: _406  and  _408
REMARK  165  A    between atoms: _408  and  _409
REMARK  166  A    between atoms: _408  and  _411
REMARK  167  A    between atoms: _411  and  _412
REMARK  168  A    between atoms: _416  and  _417
REMARK  169  A    between atoms: _422  and  _424
REMARK  170  A    between atoms: _424  and  _425
REMARK  171  A    between atoms: _424  and  _427
REMARK  172  A    between atoms: _427  and  _428
REMARK  173  A    between atoms: _434  and  _435
REMARK  174  A    between atoms: _440  and  _442
REMARK  175  A    between atoms: _442  and  _443
REMARK  176  A    between atoms: _445  and  _447
REMARK  177  A    between atoms: _447  and  _448
REMARK  178  A    between atoms: _447  and  _450
REMARK  179  A    between atoms: _450  and  _451
REMARK  180  A    between atoms: _454  and  _456
REMARK  181  A    between atoms: _456  and  _457
REMARK  182  A    between atoms: _456  and  _459
REMARK  183  A    between atoms: _459  and  _460
REMARK  184  A    between atoms: _460  and  _461
REMARK  185  A    between atoms: _461  and  _462
REMARK  186  A    between atoms: _462  and  _463
REMARK  187  A    between atoms: _467  and  _469
REMARK  188  A    between atoms: _469  and  _470
REMARK  189  A    between atoms: _469  and  _472
REMARK  190  A    between atoms: _475  and  _477
REMARK  191  A    between atoms: _477  and  _478
REMARK  192  A    between atoms: _481  and  _483
REMARK  193  A    between atoms: _483  and  _484
REMARK  194  A    between atoms: _483  and  _486
REMARK  195  A    between atoms: _486  and  _487
REMARK  196  A    between atoms: _490  and  _492
REMARK  197  A    between atoms: _492  and  _493
REMARK  198  A    between atoms: _492  and  _495
REMARK  199  A    between atoms: _495  and  _496
REMARK  200  A    between atoms: _502  and  _503
REMARK  201  A    between atoms: _508  and  _510
REMARK  202  A    between atoms: _510  and  _511
REMARK  203  A    between atoms: _510  and  _513
REMARK  204  A    between atoms: _513  and  _514
REMARK  205  A    between atoms: _520  and  _522
REMARK  206  A    between atoms: _522  and  _523
REMARK  207  A    between atoms: _522  and  _525
REMARK  208  A    between atoms: _525  and  _526
REMARK  209  A    between atoms: _529  and  _531
REMARK  210  A    between atoms: _531  and  _532
REMARK  211  A    between atoms: _534  and  _536
REMARK  212  A    between atoms: _536  and  _537
REMARK  213  A    between atoms: _536  and  _539
REMARK  214  A    between atoms: _539  and  _540
REMARK  215  A    between atoms: _543  and  _545
REMARK  216  A    between atoms: _545  and  _546
REMARK  217  A    between atoms: _545  and  _548
REMARK  218  A    between atoms: _548  and  _549
REMARK  219  A    between atoms: _555  and  _557
REMARK  220  A    between atoms: _557  and  _558
REMARK  221  A    between atoms: _557  and  _560
REMARK  222  A    between atoms: _560  and  _561
REMARK  223  A    between atoms: _561  and  _562
REMARK  224  A    between atoms: _567  and  _569
REMARK  225  A    between atoms: _569  and  _570
REMARK  226  A    between atoms: _569  and  _572
REMARK  227  A    between atoms: _572  and  _573
REMARK  228  A    between atoms: _576  and  _578
REMARK  229  A    between atoms: _578  and  _579
REMARK  230  A    between atoms: _578  and  _581
REMARK  231  A    between atoms: _581  and  _582
REMARK  232  A    between atoms: _584  and  _586
REMARK  233  A    between atoms: _586  and  _587
REMARK  234  A    between atoms: _586  and  _589
REMARK  235  A    between atoms: _589  and  _590
REMARK  236  A    between atoms: _596  and  _598
REMARK  237  A    between atoms: _598  and  _599
REMARK  238  A    between atoms: _598  and  _601
REMARK  239  A    between atoms: _601  and  _602
REMARK  240  A    between atoms: _607  and  _608
REMARK  241  A    between atoms: _610  and  _612
REMARK  242  A    between atoms: _612  and  _613
REMARK  243  A    between atoms: _612  and  _615
REMARK  244  A    between atoms: _615  and  _616
REMARK                            x       y       z     vdW  Elec       q    Type
REMARK                         _______ _______ _______ _____ _____    ______ ____
ROOT
ATOM      1  CA  LEU A   1     -21.763  -0.229  29.491  0.00  0.00    +0.133 C 
ENDROOT
BRANCH   1   2
ATOM      2  N   LEU A   1     -21.521   1.133  29.050  0.00  0.00    -0.239 NA
ATOM      3  H   LEU A   1     -21.523   1.901  29.751  0.00  0.00    +0.142 HD
ENDBRANCH   1   2
BRANCH   1   4
ATOM      4  C   LEU A   1     -23.260  -0.503  29.586  0.00  0.00    +0.224 C 
ATOM      5  O   LEU A   1     -23.986   0.201  30.292  0.00  0.00    -0.287 OA
ENDBRANCH   1   4
BRANCH   1   6
ATOM      6  CB  LEU A   1     -21.090  -0.467  30.841  0.00  0.00    +0.025 C 
BRANCH   6   7
ATOM      7  CG  LEU A   1     -21.157  -1.875  31.431  0.00  0.00    +0.002 C 
ATOM      8  CD2 LEU A   1     -20.772  -1.829  32.892  0.00  0.00    +0.000 C 
ATOM      9  CD1 LEU A   1     -20.259  -2.853  30.661  0.00  0.00    +0.000 C 
ENDBRANCH   6   7
ENDBRANCH   1   6
TORSDOF 4
REMARK  Name = ../refined-set-2016/4ido/4ido_pocket.pdb
REMARK  244 active torsions:
REMARK  status: ('A' for Active; 'I' for Inactive)
REMARK    1  A    between atoms: _1  and  _3
REMARK    2  A    between atoms: _3  and  _4
REMARK    3  A    between atoms: _3  and  _6
REMARK    4  A    between atoms: _9  and  _11
REMARK    5  A    between atoms: _11  and  _12
REMARK    6  A    between atoms: _15  and  _17
REMARK    7  A    between atoms: _17  and  _18
REMARK    8  A    between atoms: _20  and  _22
REMARK    9  A    between atoms: _22  and  _23
REMARK   10  A    between atoms: _26  and  _28
REMARK   11  A    between atoms: _28  and  _29
REMARK   12  A    between atoms: _28  and  _31
REMARK   13  A    between atoms: _31  and  _32
REMARK   14  A    between atoms: _38  and  _40
REMARK   15  A    between atoms: _40  and  _41
REMARK   16  A    between atoms: _40  and  _43
REMARK   17  A    between atoms: _43  and  _44
REMARK   18  A    between atoms: _44  and  _45
REMARK   19  A    between atoms: _45  and  _46
REMARK   20  A    between atoms: _55  and  _57
REMARK   21  A    between atoms: _57  and  _58
REMARK   22  A    between atoms: _57  and  _60
REMARK   23  A    between atoms: _60  and  _61
REMARK   24  A    between atoms: _61  and  _62
REMARK   25  A    between atoms: _62  and  _63
REMARK   26  A    between atoms: _63  and  _64
REMARK   27  A    between atoms: _68  and  _70
REMARK   28  A    between atoms: _70  and  _71
REMARK   29  A    between atoms: _73  and  _75
REMARK   30  A    between atoms: _75  and  _76
REMARK   31  A    between atoms: _75  and  _78
REMARK   32  A    between atoms: _78  and  _79
REMARK   33  A    between atoms: _79  and  _80
REMARK   34  A    between atoms: _80  and  _81
REMARK   35  A    between atoms: _81  and  _82
REMARK   36  A    between atoms: _86  and  _88
REMARK   37  A    between atoms: _88  and  _89
REMARK   38  A    between atoms: _88  and  _91
REMARK   39  A    between atoms: _91  and  _92
REMARK   40  A    between atoms: _94  and  _96
REMARK   41  A    between atoms: _96  and  _97
REMARK   42  A    between atoms: _96  and  _99
REMARK   43  A    between atoms: _99  and  _100
REMARK   44  A    between atoms: _106  and  _108
REMARK   45  A    between atoms: _108  and  _109
REMARK   46  A    between atoms: _108  and  _111
REMARK   47  A    between atoms: _111  and  _112
REMARK   48  A    between atoms: _115  and  _117
REMARK   49  A    between atoms: _117  and  _118
REMARK   50  A    between atoms: _117  and  _120
REMARK   51  A    between atoms: _120  and  _121
REMARK   52  A    between atoms: _121  and  _122
REMARK   53  A    between atoms: _124  and  _126
REMARK   54  A    between atoms: _126  and  _127
REMARK   55  A    between atoms: _126  and  _129
REMARK   56  A    between atoms: _129  and  _130
REMARK   57  A    between atoms: _133  and  _135
REMARK   58  A    between atoms: _135  and  _136
REMARK   59  A    between atoms: _135  and  _138
REMARK   60  A    between atoms: _138  and  _139
REMARK   61  A    between atoms: _145  and  _147
REMARK   62  A    between atoms: _147  and  _148
REMARK   63  A    between atoms: _147  and  _150
REMARK   64  A    between atoms: _150  and  _151
REMARK   65  A    between atoms: _154  and  _156
REMARK   66  A    between atoms: _156  and  _157
REMARK   67  A    between atoms: _156  and  _159
REMARK   68  A    between atoms: _159  and  _160
REMARK   69  A    between atoms: _166  and  _168
REMARK   70  A    between atoms: _168  and  _169
REMARK   71  A    between atoms: _168  and  _171
REMARK   72  A    between atoms: _171  and  _172
REMARK   73  A    between atoms: _174  and  _176
REMARK   74  A    between atoms: _176  and  _177
REMARK   75  A    between atoms: _176  and  _179
REMARK   76  A    between atoms: _179  and  _180
REMARK   77  A    between atoms: _190  and  _192
REMARK   78  A    between atoms: _192  and  _193
REMARK   79  A    between atoms: _192  and  _195
REMARK   80  A    between atoms: _195  and  _196
REMARK   81  A    between atoms: _196  and  _197
REMARK   82  A    between atoms: _197  and  _198
REMARK   83  A    between atoms: _207  and  _209
REMARK   84  A    between atoms: _209  and  _210
REMARK   85  A    between atoms: _212  and  _214
REMARK   86  A    between atoms: _214  and  _215
REMARK   87  A    between atoms: _217  and  _219
REMARK   88  A    between atoms: _219  and  _220
REMARK   89  A    between atoms: _219  and  _222
REMARK   90  A    between atoms: _222  and  _223
REMARK   91  A    between atoms: _223  and  _224
REMARK   92  A    between atoms: _227  and  _229
REMARK   93  A    between atoms: _229  and  _230
REMARK   94  A    between atoms: _229  and  _232
REMARK   95  A    between atoms: _232  and  _233
REMARK   96  A    between atoms: _233  and  _234
REMARK   97  A    between atoms: _234  and  _235
REMARK   98  A    between atoms: _244  and  _246
REMARK   99  A    between atoms: _246  and  _247
REMARK  100  A    between atoms: _246  and  _249
REMARK  101  A    between atoms: _249  and  _250
REMARK  102  A    between atoms: _250  and  _251
REMARK  103  A    between atoms: _254  and  _256
REMARK  104  A    between atoms: _256  and  _257
REMARK  105  A    between atoms: _256  and  _259
REMARK  106  A    between atoms: _259  and  _260
REMARK  107  A    between atoms: _263  and  _265
REMARK  108  A    between atoms: _265  and  _266
REMARK  109  A    between atoms: _265  and  _268
REMARK  110  A    between atoms: _268  and  _269
REMARK  111  A    between atoms: _272  and  _274
REMARK  112  A    between atoms: _274  and  _275
REMARK  113  A    between atoms: _274  and  _277
REMARK  114  A    between atoms: _277  and  _278
REMARK  115  A    between atoms: _281  and  _283
REMARK  116  A    between atoms: _283  and  _284
REMARK  117  A    between atoms: _283  and  _286
REMARK  118  A    between atoms: _286  and  _287
REMARK  119  A    between atoms: _287  and  _288
REMARK  120  A    between atoms: _293  and  _295
REMARK  121  A    between atoms: _295  and  _296
REMARK  122  A    between atoms: _298  and  _300
REMARK  123  A    between atoms: _300  and  _301
REMARK  124  A    between atoms: _300  and  _303
REMARK  125  A    between atoms: _303  and  _304
REMARK  126  A    between atoms: _307  and  _309
REMARK  127  A    between atoms: _309  and  _310
REMARK  128  A    between atoms: _309  and  _312
REMARK  129  A    between atoms: _312  and  _313
REMARK  130  A    between atoms: _318  and  _320
REMARK  131  A    between atoms: _320  and  _321
REMARK  132  A    between atoms: _320  and  _323
REMARK  133  A    between atoms: _323  and  _324
REMARK  134  A    between atoms: _327  and  _329
REMARK  135  A    between atoms: _329  and  _330
REMARK  136  A    between atoms: _329  and  _332
REMARK  137  A    between atoms: _332  and  _333
REMARK  138  A    between atoms: _335  and  _337
REMARK  139  A    between atoms: _337  and  _338
REMARK  140  A    between atoms: _337  and  _340
REMARK  141  A    between atoms: _340  and  _341
REMARK  142  A    between atoms: _341  and  _342
REMARK  143  A    between atoms: _347  and  _349
REMARK  144  A    between atoms: _349  and  _350
REMARK  145  A    between atoms: _349  and  _352
REMARK  146  A    between atoms: _352  and  _353
REMARK  147  A    between atoms: _356  and  _358
REMARK  148  A    between atoms: _358  and  _359
REMARK  149  A    between atoms: _358  and  _361
REMARK  150  A    between atoms: _364  and  _366
REMARK  151  A    between atoms: _366  and  _367
REMARK  152  A    between atoms: _366  and  _369
REMARK  153  A    between atoms: _369  and  _370
REMARK  154  A    between atoms: _370  and  _371
REMARK  155  A    between atoms: _371  and  _372
REMARK  156  A    between atoms: _381  and  _383
REMARK  157  A    between atoms: _383  and  _384
REMARK  158  A    between atoms: _383  and  _386
REMARK  159  A    between atoms: _386  and  _387
REMARK  160  A    between atoms: _390  and  _392
REMARK  161  A    between atoms: _392  and  _393
REMARK  162  A    between atoms: _392  and  _395
REMARK  163  A    between atoms: _395  and  _396
REMARK  164  A    between atoms: _406  and  _408
REMARK  165  A    between atoms: _408  and  _409
REMARK  166  A    between atoms: _408  and  _411
REMARK  167  A    between atoms: _411  and  _412
REMARK  168  A    between atoms: _416  and  _417
REMARK  169  A    between atoms: _422  and  _424
REMARK  170  A    between atoms: _424  and  _425
REMARK  171  A    between atoms: _424  and  _427
REMARK  172  A    between atoms: _427  and  _428
REMARK  173  A    between atoms: _434  and  _435
REMARK  174  A    between atoms: _440  and  _442
REMARK  175  A    between atoms: _442  and  _443
REMARK  176  A    between atoms: _445  and  _447
REMARK  177  A    between atoms: _447  and  _448
REMARK  178  A    between atoms: _447  and  _450
REMARK  179  A    between atoms: _450  and  _451
REMARK  180  A    between atoms: _454  and  _456
REMARK  181  A    between atoms: _456  and  _457
REMARK  182  A    between atoms: _456  and  _459
REMARK  183  A    between atoms: _459  and  _460
REMARK  184  A    between atoms: _460  and  _461
REMARK  185  A    between atoms: _461  and  _462
REMARK  186  A    between atoms: _462  and  _463
REMARK  187  A    between atoms: _467  and  _469
REMARK  188  A    between atoms: _469  and  _470
REMARK  189  A    between atoms: _469  and  _472
REMARK  190  A    between atoms: _475  and  _477
REMARK  191  A    between atoms: _477  and  _478
REMARK  192  A    between atoms: _481  and  _483
REMARK  193  A    between atoms: _483  and  _484
REMARK  194  A    between atoms: _483  and  _486
REMARK  195  A    between atoms: _486  and  _487
REMARK  196  A    between atoms: _490  and  _492
REMARK  197  A    between atoms: _492  and  _493
REMARK  198  A    between atoms: _492  and  _495
REMARK  199  A    between atoms: _495  and  _496
REMARK  200  A    between atoms: _502  and  _503
REMARK  201  A    between atoms: _508  and  _510
REMARK  202  A    between atoms: _510  and  _511
REMARK  203  A    between atoms: _510  and  _513
REMARK  204  A    between atoms: _513  and  _514
REMARK  205  A    between atoms: _520  and  _522
REMARK  206  A    between atoms: _522  and  _523
REMARK  207  A    between atoms: _522  and  _525
REMARK  208  A    between atoms: _525  and  _526
REMARK  209  A    between atoms: _529  and  _531
REMARK  210  A    between atoms: _531  and  _532
REMARK  211  A    between atoms: _534  and  _536
REMARK  212  A    between atoms: _536  and  _537
REMARK  213  A    between atoms: _536  and  _539
REMARK  214  A    between atoms: _539  and  _540
REMARK  215  A    between atoms: _543  and  _545
REMARK  216  A    between atoms: _545  and  _546
REMARK  217  A    between atoms: _545  and  _548
REMARK  218  A    between atoms: _548  and  _549
REMARK  219  A    between atoms: _555  and  _557
REMARK  220  A    between atoms: _557  and  _558
REMARK  221  A    between atoms: _557  and  _560
REMARK  222  A    between atoms: _560  and  _561
REMARK  223  A    between atoms: _561  and  _562
REMARK  224  A    between atoms: _567  and  _569
REMARK  225  A    between atoms: _569  and  _570
REMARK  226  A    between atoms: _569  and  _572
REMARK  227  A    between atoms: _572  and  _573
REMARK  228  A    between atoms: _576  and  _578
REMARK  229  A    between atoms: _578  and  _579
REMARK  230  A    between atoms: _578  and  _581
REMARK  231  A    between atoms: _581  and  _582
REMARK  232  A    between atoms: _584  and  _586
REMARK  233  A    between atoms: _586  and  _587
REMARK  234  A    between atoms: _586  and  _589
REMARK  235  A    between atoms: _589  and  _590
REMARK  236  A    between atoms: _596  and  _598
REMARK  237  A    between atoms: _598  and  _599
REMARK  238  A    between atoms: _598  and  _601
REMARK  239  A    between atoms: _601  and  _602
REMARK  240  A    between atoms: _607  and  _608
REMARK  241  A    between atoms: _610  and  _612
REMARK  242  A    between atoms: _612  and  _613
REMARK  243  A    between atoms: _612  and  _615
REMARK  244  A    between atoms: _615  and  _616
REMARK                            x       y       z     vdW  Elec       q    Type
REMARK                         _______ _______ _______ _____ _____    ______ ____
ROOT
ATOM      1  CA  TRP A   3     -26.979  -0.869  36.584  0.00  0.00    +0.153 C 
ENDROOT
BRANCH   1   4
ATOM      2  C   SER A   2     -28.726  -2.206  35.561  0.00  0.00    +0.243 C 
ATOM      3  O   SER A   2     -28.880  -2.855  36.591  0.00  0.00    -0.273 OA
ATOM      4  N   TRP A   3     -27.849  -1.221  35.472  0.00  0.00    -0.297 N 
ATOM      5  H   TRP A   3     -27.779  -0.684  34.584  0.00  0.00    +0.150 HD
BRANCH   2   6
ATOM      6  CA  SER A   2     -29.575  -2.466  34.312  0.00  0.00    +0.178 C 
BRANCH   6   8
ATOM      7  C   PHE A   1     -28.405  -4.368  33.397  0.00  0.00    +0.239 C 
ATOM      8  N   SER A   2     -29.523  -3.842  33.878  0.00  0.00    -0.295 N 
ATOM      9  H   SER A   2     -30.378  -4.431  33.944  0.00  0.00    +0.150 HD
ATOM     10  O   PHE A   1     -27.344  -3.767  33.356  0.00  0.00    -0.274 OA
BRANCH   7  11
ATOM     11  CA  PHE A   1     -28.465  -5.786  32.922  0.00  0.00    +0.149 C 
BRANCH  11  12
ATOM     12  N   PHE A   1     -27.679  -5.815  31.702  0.00  0.00    -0.238 NA
ATOM     13  H   PHE A   1     -26.793  -6.359  31.671  0.00  0.00    +0.142 HD
ENDBRANCH  11  12
BRANCH  11  14
ATOM     14  CB  PHE A   1     -27.840  -6.693  33.976  0.00  0.00    +0.053 C 
BRANCH  14  15
ATOM     15  CG  PHE A   1     -27.862  -8.170  33.611  0.00  0.00    -0.020 A 
ATOM     16  CD2 PHE A   1     -29.051  -8.882  33.635  0.00  0.00    -0.004 A 
ATOM     17  CE2 PHE A   1     -29.080 -10.263  33.321  0.00  0.00    -0.000 A 
ATOM     18  CZ  PHE A   1     -27.891 -10.913  32.969  0.00  0.00    -0.000 A 
ATOM     19  CE1 PHE A   1     -26.703 -10.206  32.930  0.00  0.00    -0.000 A 
ATOM     20  CD1 PHE A   1     -26.689  -8.837  33.257  0.00  0.00    -0.004 A 
ENDBRANCH  14  15
ENDBRANCH  11  14
ENDBRANCH   7  11
ENDBRANCH   6   8
BRANCH   6  21
ATOM     21  CB  SER A   2     -31.025  -2.046  34.553  0.00  0.00    +0.166 C 
BRANCH  21  22
ATOM     22  OG  SER A   2     -31.043  -0.784  35.166  0.00  0.00    -0.380 OA
ATOM     23  H   SER A   2     -31.981  -0.508  35.324  0.00  0.00    +0.211 HD
ENDBRANCH  21  22
ENDBRANCH   6  21
ENDBRANCH   2   6
ENDBRANCH   1   4
BRANCH   1  24
ATOM     24  C   TRP A   3     -26.978   0.642  36.690  0.00  0.00    +0.241 C 
ATOM     25  N   ARG A   4     -26.739   1.172  37.889  0.00  0.00    -0.297 N 
ATOM     26  H   ARG A   4     -26.586   0.537  38.698  0.00  0.00    +0.150 HD
ATOM     27  O   TRP A   3     -27.203   1.320  35.693  0.00  0.00    -0.273 OA
BRANCH  25  28
ATOM     28  CA  ARG A   4     -26.685   2.627  38.105  0.00  0.00    +0.149 C 
BRANCH  28  29
ATOM     29  C   ARG A   4     -26.276   2.972  39.540  0.00  0.00    +0.241 C 
ATOM     30  O   ARG A   4     -26.336   2.122  40.442  0.00  0.00    -0.273 OA
ATOM     31  N   GLY A   5     -25.893   4.229  39.766  0.00  0.00    -0.295 N 
ATOM     32  H   GLY A   5     -25.778   4.884  38.966  0.00  0.00    +0.150 HD
BRANCH  31  33
ATOM     33  CA  GLY A   5     -25.634   4.693  41.119  0.00  0.00    +0.176 C 
BRANCH  33  34
ATOM     34  C   GLY A   5     -26.927   5.121  41.784  0.00  0.00    +0.243 C 
ATOM     35  N   GLY A   6     -26.807   5.852  42.881  0.00  0.00    -0.296 N 
ATOM     36  H   GLY A   6     -25.862   6.176  43.171  0.00  0.00    +0.150 HD
ATOM     37  O   GLY A   5     -28.016   4.854  41.273  0.00  0.00    -0.273 OA
BRANCH  35  38
ATOM     38  CA  GLY A   6     -27.954   6.214  43.689  0.00  0.00    +0.163 C 
BRANCH  38  39
ATOM     39  C   GLY A   6     -28.057   5.238  44.838  0.00  0.00    +0.229 C 
ATOM     40  O   GLY A   6     -27.612   4.090  44.740  0.00  0.00    -0.286 OA
ENDBRANCH  38  39
ENDBRANCH  35  38
ENDBRANCH  33  34
ENDBRANCH  31  33
ENDBRANCH  28  29
BRANCH  28  41
ATOM     41  CB  ARG A   4     -28.051   3.278  37.832  0.00  0.00    +0.033 C 
BRANCH  41  42
ATOM     42  CG  ARG A   4     -29.180   2.700  38.682  0.00  0.00    +0.045 C 
BRANCH  42  43
ATOM     43  CD  ARG A   4     -30.289   3.737  38.932  0.00  0.00    +0.174 C 
BRANCH  43  44
ATOM     44  NE  ARG A   4     -31.425   3.131  39.618  0.00  0.00    -0.265 N 
ATOM     45  CZ  ARG A   4     -31.506   2.940  40.934  0.00  0.00    +0.342 C 
ATOM     46  NH2 ARG A   4     -30.512   3.315  41.741  0.00  0.00    -0.292 N 
ATOM     47 HH21 ARG A   4     -30.588   3.160  42.767  0.00  0.00    +0.255 HD
ATOM     48 HH22 ARG A   4     -29.661   3.762  41.345  0.00  0.00    +0.255 HD
ATOM     49  NH1 ARG A   4     -32.585   2.363  41.447  0.00  0.00    -0.292 N 
ATOM     50 HH11 ARG A   4     -32.655   2.211  42.473  0.00  0.00    +0.255 HD
ATOM     51 HH12 ARG A   4     -33.361   2.063  40.823  0.00  0.00    +0.255 HD
ATOM     52  HE  ARG A   4     -32.231   2.825  39.037  0.00  0.00    +0.259 HD
ENDBRANCH  43  44
ENDBRANCH  42  43
ENDBRANCH  41  42
ENDBRANCH  28  41
ENDBRANCH  25  28
ENDBRANCH   1  24
BRANCH   1  53
ATOM     53  CB  TRP A   3     -25.556  -1.386  36.332  0.00  0.00    +0.057 C 
BRANCH  53  54
ATOM     54  CG  TRP A   3     -24.869  -0.649  35.204  0.00  0.00    -0.002 A 
ATOM     55  CD2 TRP A   3     -24.068   0.534  35.309  0.00  0.00    +0.013 A 
ATOM     56  CE3 TRP A   3     -23.626   1.315  36.386  0.00  0.00    +0.001 A 
ATOM     57  CZ3 TRP A   3     -22.839   2.412  36.133  0.00  0.00    +0.000 A 
ATOM     58  CH2 TRP A   3     -22.445   2.737  34.817  0.00  0.00    +0.001 A 
ATOM     59  CZ2 TRP A   3     -22.844   1.979  33.746  0.00  0.00    +0.017 A 
ATOM     60  CE2 TRP A   3     -23.653   0.874  34.008  0.00  0.00    +0.056 A 
ATOM     61  NE1 TRP A   3     -24.192  -0.049  33.151  0.00  0.00    -0.352 N 
ATOM     62  HE1 TRP A   3     -24.065  -0.062  32.119  0.00  0.00    +0.166 HD
ATOM     63  CD1 TRP A   3     -24.925  -0.952  33.875  0.00  0.00    +0.068 A 
ENDBRANCH  53  54
ENDBRANCH   1  53
TORSDOF 22
REMARK  Name = ../refined-set-2016/4ido/4ido_pocket.pdb
REMARK  244 active torsions:
REMARK  status: ('A' for Active; 'I' for Inactive)
REMARK    1  A    between atoms: _1  and  _3
REMARK    2  A    between atoms: _3  and  _4
REMARK    3  A    between atoms: _3  and  _6
REMARK    4  A    between atoms: _9  and  _11
REMARK    5  A    between atoms: _11  and  _12
REMARK    6  A    between atoms: _15  and  _17
REMARK    7  A    between atoms: _17  and  _18
REMARK    8  A    between atoms: _20  and  _22
REMARK    9  A    between atoms: _22  and  _23
REMARK   10  A    between atoms: _26  and  _28
REMARK   11  A    between atoms: _28  and  _29
REMARK   12  A    between atoms: _28  and  _31
REMARK   13  A    between atoms: _31  and  _32
REMARK   14  A    between atoms: _38  and  _40
REMARK   15  A    between atoms: _40  and  _41
REMARK   16  A    between atoms: _40  and  _43
REMARK   17  A    between atoms: _43  and  _44
REMARK   18  A    between atoms: _44  and  _45
REMARK   19  A    between atoms: _45  and  _46
REMARK   20  A    between atoms: _55  and  _57
REMARK   21  A    between atoms: _57  and  _58
REMARK   22  A    between atoms: _57  and  _60
REMARK   23  A    between atoms: _60  and  _61
REMARK   24  A    between atoms: _61  and  _62
REMARK   25  A    between atoms: _62  and  _63
REMARK   26  A    between atoms: _63  and  _64
REMARK   27  A    between atoms: _68  and  _70
REMARK   28  A    between atoms: _70  and  _71
REMARK   29  A    between atoms: _73  and  _75
REMARK   30  A    between atoms: _75  and  _76
REMARK   31  A    between atoms: _75  and  _78
REMARK   32  A    between atoms: _78  and  _79
REMARK   33  A    between atoms: _79  and  _80
REMARK   34  A    between atoms: _80  and  _81
REMARK   35  A    between atoms: _81  and  _82
REMARK   36  A    between atoms: _86  and  _88
REMARK   37  A    between atoms: _88  and  _89
REMARK   38  A    between atoms: _88  and  _91
REMARK   39  A    between atoms: _91  and  _92
REMARK   40  A    between atoms: _94  and  _96
REMARK   41  A    between atoms: _96  and  _97
REMARK   42  A    between atoms: _96  and  _99
REMARK   43  A    between atoms: _99  and  _100
REMARK   44  A    between atoms: _106  and  _108
REMARK   45  A    between atoms: _108  and  _109
REMARK   46  A    between atoms: _108  and  _111
REMARK   47  A    between atoms: _111  and  _112
REMARK   48  A    between atoms: _115  and  _117
REMARK   49  A    between atoms: _117  and  _118
REMARK   50  A    between atoms: _117  and  _120
REMARK   51  A    between atoms: _120  and  _121
REMARK   52  A    between atoms: _121  and  _122
REMARK   53  A    between atoms: _124  and  _126
REMARK   54  A    between atoms: _126  and  _127
REMARK   55  A    between atoms: _126  and  _129
REMARK   56  A    between atoms: _129  and  _130
REMARK   57  A    between atoms: _133  and  _135
REMARK   58  A    between atoms: _135  and  _136
REMARK   59  A    between atoms: _135  and  _138
REMARK   60  A    between atoms: _138  and  _139
REMARK   61  A    between atoms: _145  and  _147
REMARK   62  A    between atoms: _147  and  _148
REMARK   63  A    between atoms: _147  and  _150
REMARK   64  A    between atoms: _150  and  _151
REMARK   65  A    between atoms: _154  and  _156
REMARK   66  A    between atoms: _156  and  _157
REMARK   67  A    between atoms: _156  and  _159
REMARK   68  A    between atoms: _159  and  _160
REMARK   69  A    between atoms: _166  and  _168
REMARK   70  A    between atoms: _168  and  _169
REMARK   71  A    between atoms: _168  and  _171
REMARK   72  A    between atoms: _171  and  _172
REMARK   73  A    between atoms: _174  and  _176
REMARK   74  A    between atoms: _176  and  _177
REMARK   75  A    between atoms: _176  and  _179
REMARK   76  A    between atoms: _179  and  _180
REMARK   77  A    between atoms: _190  and  _192
REMARK   78  A    between atoms: _192  and  _193
REMARK   79  A    between atoms: _192  and  _195
REMARK   80  A    between atoms: _195  and  _196
REMARK   81  A    between atoms: _196  and  _197
REMARK   82  A    between atoms: _197  and  _198
REMARK   83  A    between atoms: _207  and  _209
REMARK   84  A    between atoms: _209  and  _210
REMARK   85  A    between atoms: _212  and  _214
REMARK   86  A    between atoms: _214  and  _215
REMARK   87  A    between atoms: _217  and  _219
REMARK   88  A    between atoms: _219  and  _220
REMARK   89  A    between atoms: _219  and  _222
REMARK   90  A    between atoms: _222  and  _223
REMARK   91  A    between atoms: _223  and  _224
REMARK   92  A    between atoms: _227  and  _229
REMARK   93  A    between atoms: _229  and  _230
REMARK   94  A    between atoms: _229  and  _232
REMARK   95  A    between atoms: _232  and  _233
REMARK   96  A    between atoms: _233  and  _234
REMARK   97  A    between atoms: _234  and  _235
REMARK   98  A    between atoms: _244  and  _246
REMARK   99  A    between atoms: _246  and  _247
REMARK  100  A    between atoms: _246  and  _249
REMARK  101  A    between atoms: _249  and  _250
REMARK  102  A    between atoms: _250  and  _251
REMARK  103  A    between atoms: _254  and  _256
REMARK  104  A    between atoms: _256  and  _257
REMARK  105  A    between atoms: _256  and  _259
REMARK  106  A    between atoms: _259  and  _260
REMARK  107  A    between atoms: _263  and  _265
REMARK  108  A    between atoms: _265  and  _266
REMARK  109  A    between atoms: _265  and  _268
REMARK  110  A    between atoms: _268  and  _269
REMARK  111  A    between atoms: _272  and  _274
REMARK  112  A    between atoms: _274  and  _275
REMARK  113  A    between atoms: _274  and  _277
REMARK  114  A    between atoms: _277  and  _278
REMARK  115  A    between atoms: _281  and  _283
REMARK  116  A    between atoms: _283  and  _284
REMARK  117  A    between atoms: _283  and  _286
REMARK  118  A    between atoms: _286  and  _287
REMARK  119  A    between atoms: _287  and  _288
REMARK  120  A    between atoms: _293  and  _295
REMARK  121  A    between atoms: _295  and  _296
REMARK  122  A    between atoms: _298  and  _300
REMARK  123  A    between atoms: _300  and  _301
REMARK  124  A    between atoms: _300  and  _303
REMARK  125  A    between atoms: _303  and  _304
REMARK  126  A    between atoms: _307  and  _309
REMARK  127  A    between atoms: _309  and  _310
REMARK  128  A    between atoms: _309  and  _312
REMARK  129  A    between atoms: _312  and  _313
REMARK  130  A    between atoms: _318  and  _320
REMARK  131  A    between atoms: _320  and  _321
REMARK  132  A    between atoms: _320  and  _323
REMARK  133  A    between atoms: _323  and  _324
REMARK  134  A    between atoms: _327  and  _329
REMARK  135  A    between atoms: _329  and  _330
REMARK  136  A    between atoms: _329  and  _332
REMARK  137  A    between atoms: _332  and  _333
REMARK  138  A    between atoms: _335  and  _337
REMARK  139  A    between atoms: _337  and  _338
REMARK  140  A    between atoms: _337  and  _340
REMARK  141  A    between atoms: _340  and  _341
REMARK  142  A    between atoms: _341  and  _342
REMARK  143  A    between atoms: _347  and  _349
REMARK  144  A    between atoms: _349  and  _350
REMARK  145  A    between atoms: _349  and  _352
REMARK  146  A    between atoms: _352  and  _353
REMARK  147  A    between atoms: _356  and  _358
REMARK  148  A    between atoms: _358  and  _359
REMARK  149  A    between atoms: _358  and  _361
REMARK  150  A    between atoms: _364  and  _366
REMARK  151  A    between atoms: _366  and  _367
REMARK  152  A    between atoms: _366  and  _369
REMARK  153  A    between atoms: _369  and  _370
REMARK  154  A    between atoms: _370  and  _371
REMARK  155  A    between atoms: _371  and  _372
REMARK  156  A    between atoms: _381  and  _383
REMARK  157  A    between atoms: _383  and  _384
REMARK  158  A    between atoms: _383  and  _386
REMARK  159  A    between atoms: _386  and  _387
REMARK  160  A    between atoms: _390  and  _392
REMARK  161  A    between atoms: _392  and  _393
REMARK  162  A    between atoms: _392  and  _395
REMARK  163  A    between atoms: _395  and  _396
REMARK  164  A    between atoms: _406  and  _408
REMARK  165  A    between atoms: _408  and  _409
REMARK  166  A    between atoms: _408  and  _411
REMARK  167  A    between atoms: _411  and  _412
REMARK  168  A    between atoms: _416  and  _417
REMARK  169  A    between atoms: _422  and  _424
REMARK  170  A    between atoms: _424  and  _425
REMARK  171  A    between atoms: _424  and  _427
REMARK  172  A    between atoms: _427  and  _428
REMARK  173  A    between atoms: _434  and  _435
REMARK  174  A    between atoms: _440  and  _442
REMARK  175  A    between atoms: _442  and  _443
REMARK  176  A    between atoms: _445  and  _447
REMARK  177  A    between atoms: _447  and  _448
REMARK  178  A    between atoms: _447  and  _450
REMARK  179  A    between atoms: _450  and  _451
REMARK  180  A    between atoms: _454  and  _456
REMARK  181  A    between atoms: _456  and  _457
REMARK  182  A    between atoms: _456  and  _459
REMARK  183  A    between atoms: _459  and  _460
REMARK  184  A    between atoms: _460  and  _461
REMARK  185  A    between atoms: _461  and  _462
REMARK  186  A    between atoms: _462  and  _463
REMARK  187  A    between atoms: _467  and  _469
REMARK  188  A    between atoms: _469  and  _470
REMARK  189  A    between atoms: _469  and  _472
REMARK  190  A    between atoms: _475  and  _477
REMARK  191  A    between atoms: _477  and  _478
REMARK  192  A    between atoms: _481  and  _483
REMARK  193  A    between atoms: _483  and  _484
REMARK  194  A    between atoms: _483  and  _486
REMARK  195  A    between atoms: _486  and  _487
REMARK  196  A    between atoms: _490  and  _492
REMARK  197  A    between atoms: _492  and  _493
REMARK  198  A    between atoms: _492  and  _495
REMARK  199  A    between atoms: _495  and  _496
REMARK  200  A    between atoms: _502  and  _503
REMARK  201  A    between atoms: _508  and  _510
REMARK  202  A    between atoms: _510  and  _511
REMARK  203  A    between atoms: _510  and  _513
REMARK  204  A    between atoms: _513  and  _514
REMARK  205  A    between atoms: _520  and  _522
REMARK  206  A    between atoms: _522  and  _523
REMARK  207  A    between atoms: _522  and  _525
REMARK  208  A    between atoms: _525  and  _526
REMARK  209  A    between atoms: _529  and  _531
REMARK  210  A    between atoms: _531  and  _532
REMARK  211  A    between atoms: _534  and  _536
REMARK  212  A    between atoms: _536  and  _537
REMARK  213  A    between atoms: _536  and  _539
REMARK  214  A    between atoms: _539  and  _540
REMARK  215  A    between atoms: _543  and  _545
REMARK  216  A    between atoms: _545  and  _546
REMARK  217  A    between atoms: _545  and  _548
REMARK  218  A    between atoms: _548  and  _549
REMARK  219  A    between atoms: _555  and  _557
REMARK  220  A    between atoms: _557  and  _558
REMARK  221  A    between atoms: _557  and  _560
REMARK  222  A    between atoms: _560  and  _561
REMARK  223  A    between atoms: _561  and  _562
REMARK  224  A    between atoms: _567  and  _569
REMARK  225  A    between atoms: _569  and  _570
REMARK  226  A    between atoms: _569  and  _572
REMARK  227  A    between atoms: _572  and  _573
REMARK  228  A    between atoms: _576  and  _578
REMARK  229  A    between atoms: _578  and  _579
REMARK  230  A    between atoms: _578  and  _581
REMARK  231  A    between atoms: _581  and  _582
REMARK  232  A    between atoms: _584  and  _586
REMARK  233  A    between atoms: _586  and  _587
REMARK  234  A    between atoms: _586  and  _589
REMARK  235  A    between atoms: _589  and  _590
REMARK  236  A    between atoms: _596  and  _598
REMARK  237  A    between atoms: _598  and  _599
REMARK  238  A    between atoms: _598  and  _601
REMARK  239  A    between atoms: _601  and  _602
REMARK  240  A    between atoms: _607  and  _608
REMARK  241  A    between atoms: _610  and  _612
REMARK  242  A    between atoms: _612  and  _613
REMARK  243  A    between atoms: _612  and  _615
REMARK  244  A    between atoms: _615  and  _616
REMARK                            x       y       z     vdW  Elec       q    Type
REMARK                         _______ _______ _______ _____ _____    ______ ____
ROOT
ATOM      1  CA  ARG A   2     -31.701  -0.667  44.787  0.00  0.00    +0.149 C 
ENDROOT
BRANCH   1   2
ATOM      2  C   ARG A   2     -32.241  -0.543  43.368  0.00  0.00    +0.241 C 
ATOM      3  O   ARG A   2     -33.172   0.223  43.122  0.00  0.00    -0.273 OA
ATOM      4  N   GLU A   3     -31.626  -1.271  42.437  0.00  0.00    -0.297 N 
ATOM      5  H   GLU A   3     -30.763  -1.794  42.690  0.00  0.00    +0.150 HD
BRANCH   4   6
ATOM      6  CA  GLU A   3     -32.133  -1.353  41.073  0.00  0.00    +0.149 C 
BRANCH   6   7
ATOM      7  C   GLU A   3     -32.632  -2.761  40.770  0.00  0.00    +0.241 C 
ATOM      8  N   THR A   4     -31.728  -3.738  40.760  0.00  0.00    -0.296 N 
ATOM      9  H   THR A   4     -30.735  -3.523  40.983  0.00  0.00    +0.150 HD
ATOM     10  O   GLU A   3     -33.822  -2.960  40.566  0.00  0.00    -0.273 OA
BRANCH   8  11
ATOM     11  CA  THR A   4     -32.117  -5.114  40.438  0.00  0.00    +0.164 C 
BRANCH  11  12
ATOM     12  C   THR A   4     -33.018  -5.680  41.522  0.00  0.00    +0.229 C 
ATOM     13  O   THR A   4     -32.728  -5.514  42.703  0.00  0.00    -0.286 OA
ENDBRANCH  11  12
BRANCH  11  14
ATOM     14  CB  THR A   4     -30.894  -6.032  40.294  0.00  0.00    +0.136 C 
ATOM     15  CG2 THR A   4     -31.294  -7.378  39.692  0.00  0.00    +0.034 C 
BRANCH  14  16
ATOM     16  OG1 THR A   4     -29.908  -5.407  39.454  0.00  0.00    -0.382 OA
ATOM     17  HG1 THR A   4     -30.297  -5.238  38.559  0.00  0.00    +0.210 HD
ENDBRANCH  14  16
ENDBRANCH  11  14
ENDBRANCH   8  11
ENDBRANCH   6   7
BRANCH   6  18
ATOM     18  CB  GLU A   3     -31.057  -0.961  40.060  0.00  0.00    +0.041 C 
BRANCH  18  19
ATOM     19  CG  GLU A   3     -31.473  -1.187  38.599  0.00  0.00    +0.116 C 
BRANCH  19  20
ATOM     20  CD  GLU A   3     -32.507  -0.184  38.093  0.00  0.00    +0.365 C 
ATOM     21  OE2 GLU A   3     -32.868   0.794  38.806  0.00  0.00    -0.246 OA
ATOM     22  OE1 GLU A   3     -32.948  -0.362  36.946  0.00  0.00    -0.246 OA
ENDBRANCH  19  20
ENDBRANCH  18  19
ENDBRANCH   6  18
ENDBRANCH   4   6
ENDBRANCH   1   2
BRANCH   1  24
ATOM     23  C   GLU A   1     -31.511   1.734  45.195  0.00  0.00    +0.238 C 
ATOM     24  N   ARG A   2     -31.955   0.541  45.573  0.00  0.00    -0.297 N 
ATOM     25  H   ARG A   2     -32.500   0.463  46.455  0.00  0.00    +0.150 HD
ATOM     26  O   GLU A   1     -30.889   1.910  44.148  0.00  0.00    -0.274 OA
BRANCH  23  27
ATOM     27  CA  GLU A   1     -31.809   2.899  46.142  0.00  0.00    +0.145 C 
BRANCH  27  28
ATOM     28  N   GLU A   1     -30.726   3.884  46.194  0.00  0.00    -0.238 NA
ATOM     29  H   GLU A   1     -30.674   4.633  45.475  0.00  0.00    +0.142 HD
ENDBRANCH  27  28
BRANCH  27  30
ATOM     30  CB  GLU A   1     -33.137   3.570  45.777  0.00  0.00    +0.038 C 
BRANCH  30  31
ATOM     31  CG  GLU A   1     -33.670   4.529  46.857  0.00  0.00    +0.116 C 
BRANCH  31  32
ATOM     32  CD  GLU A   1     -33.820   3.862  48.231  0.00  0.00    +0.365 C 
ATOM     33  OE2 GLU A   1     -33.200   4.332  49.219  0.00  0.00    -0.246 OA
ATOM     34  OE1 GLU A   1     -34.566   2.864  48.324  0.00  0.00    -0.246 OA
ENDBRANCH  31  32
ENDBRANCH  30  31
ENDBRANCH  27  30
ENDBRANCH  23  27
ENDBRANCH   1  24
BRANCH   1  35
ATOM     35  CB  ARG A   2     -32.388  -1.856  45.440  0.00  0.00    +0.033 C 
BRANCH  35  36
ATOM     36  CG  ARG A   2     -33.883  -1.632  45.506  0.00  0.00    +0.045 C 
BRANCH  36  37
ATOM     37  CD  ARG A   2     -34.601  -2.880  45.798  0.00  0.00    +0.174 C 
BRANCH  37  38
ATOM     38  NE  ARG A   2     -36.044  -2.708  45.690  0.00  0.00    -0.265 N 
ATOM     39  CZ  ARG A   2     -36.911  -3.606  46.134  0.00  0.00    +0.342 C 
ATOM     40  NH2 ARG A   2     -36.456  -4.707  46.719  0.00  0.00    -0.292 N 
ATOM     41 HH21 ARG A   2     -37.124  -5.422  47.073  0.00  0.00    +0.255 HD
ATOM     42 HH22 ARG A   2     -35.432  -4.855  46.823  0.00  0.00    +0.255 HD
ATOM     43  NH1 ARG A   2     -38.220  -3.404  46.008  0.00  0.00    -0.292 N 
ATOM     44 HH11 ARG A   2     -38.892  -4.115  46.360  0.00  0.00    +0.255 HD
ATOM     45 HH12 ARG A   2     -38.571  -2.535  45.558  0.00  0.00    +0.255 HD
ATOM     46  HE  ARG A   2     -36.409  -1.842  45.245  0.00  0.00    +0.259 HD
ENDBRANCH  37  38
ENDBRANCH  36  37
ENDBRANCH  35  36
ENDBRANCH   1  35
TORSDOF 20
REMARK  Name = ../refined-set-2016/4ido/4ido_pocket.pdb
REMARK  244 active torsions:
REMARK  status: ('A' for Active; 'I' for Inactive)
REMARK    1  A    between atoms: _1  and  _3
REMARK    2  A    between atoms: _3  and  _4
REMARK    3  A    between atoms: _3  and  _6
REMARK    4  A    between atoms: _9  and  _11
REMARK    5  A    between atoms: _11  and  _12
REMARK    6  A    between atoms: _15  and  _17
REMARK    7  A    between atoms: _17  and  _18
REMARK    8  A    between atoms: _20  and  _22
REMARK    9  A    between atoms: _22  and  _23
REMARK   10  A    between atoms: _26  and  _28
REMARK   11  A    between atoms: _28  and  _29
REMARK   12  A    between atoms: _28  and  _31
REMARK   13  A    between atoms: _31  and  _32
REMARK   14  A    between atoms: _38  and  _40
REMARK   15  A    between atoms: _40  and  _41
REMARK   16  A    between atoms: _40  and  _43
REMARK   17  A    between atoms: _43  and  _44
REMARK   18  A    between atoms: _44  and  _45
REMARK   19  A    between atoms: _45  and  _46
REMARK   20  A    between atoms: _55  and  _57
REMARK   21  A    between atoms: _57  and  _58
REMARK   22  A    between atoms: _57  and  _60
REMARK   23  A    between atoms: _60  and  _61
REMARK   24  A    between atoms: _61  and  _62
REMARK   25  A    between atoms: _62  and  _63
REMARK   26  A    between atoms: _63  and  _64
REMARK   27  A    between atoms: _68  and  _70
REMARK   28  A    between atoms: _70  and  _71
REMARK   29  A    between atoms: _73  and  _75
REMARK   30  A    between atoms: _75  and  _76
REMARK   31  A    between atoms: _75  and  _78
REMARK   32  A    between atoms: _78  and  _79
REMARK   33  A    between atoms: _79  and  _80
REMARK   34  A    between atoms: _80  and  _81
REMARK   35  A    between atoms: _81  and  _82
REMARK   36  A    between atoms: _86  and  _88
REMARK   37  A    between atoms: _88  and  _89
REMARK   38  A    between atoms: _88  and  _91
REMARK   39  A    between atoms: _91  and  _92
REMARK   40  A    between atoms: _94  and  _96
REMARK   41  A    between atoms: _96  and  _97
REMARK   42  A    between atoms: _96  and  _99
REMARK   43  A    between atoms: _99  and  _100
REMARK   44  A    between atoms: _106  and  _108
REMARK   45  A    between atoms: _108  and  _109
REMARK   46  A    between atoms: _108  and  _111
REMARK   47  A    between atoms: _111  and  _112
REMARK   48  A    between atoms: _115  and  _117
REMARK   49  A    between atoms: _117  and  _118
REMARK   50  A    between atoms: _117  and  _120
REMARK   51  A    between atoms: _120  and  _121
REMARK   52  A    between atoms: _121  and  _122
REMARK   53  A    between atoms: _124  and  _126
REMARK   54  A    between atoms: _126  and  _127
REMARK   55  A    between atoms: _126  and  _129
REMARK   56  A    between atoms: _129  and  _130
REMARK   57  A    between atoms: _133  and  _135
REMARK   58  A    between atoms: _135  and  _136
REMARK   59  A    between atoms: _135  and  _138
REMARK   60  A    between atoms: _138  and  _139
REMARK   61  A    between atoms: _145  and  _147
REMARK   62  A    between atoms: _147  and  _148
REMARK   63  A    between atoms: _147  and  _150
REMARK   64  A    between atoms: _150  and  _151
REMARK   65  A    between atoms: _154  and  _156
REMARK   66  A    between atoms: _156  and  _157
REMARK   67  A    between atoms: _156  and  _159
REMARK   68  A    between atoms: _159  and  _160
REMARK   69  A    between atoms: _166  and  _168
REMARK   70  A    between atoms: _168  and  _169
REMARK   71  A    between atoms: _168  and  _171
REMARK   72  A    between atoms: _171  and  _172
REMARK   73  A    between atoms: _174  and  _176
REMARK   74  A    between atoms: _176  and  _177
REMARK   75  A    between atoms: _176  and  _179
REMARK   76  A    between atoms: _179  and  _180
REMARK   77  A    between atoms: _190  and  _192
REMARK   78  A    between atoms: _192  and  _193
REMARK   79  A    between atoms: _192  and  _195
REMARK   80  A    between atoms: _195  and  _196
REMARK   81  A    between atoms: _196  and  _197
REMARK   82  A    between atoms: _197  and  _198
REMARK   83  A    between atoms: _207  and  _209
REMARK   84  A    between atoms: _209  and  _210
REMARK   85  A    between atoms: _212  and  _214
REMARK   86  A    between atoms: _214  and  _215
REMARK   87  A    between atoms: _217  and  _219
REMARK   88  A    between atoms: _219  and  _220
REMARK   89  A    between atoms: _219  and  _222
REMARK   90  A    between atoms: _222  and  _223
REMARK   91  A    between atoms: _223  and  _224
REMARK   92  A    between atoms: _227  and  _229
REMARK   93  A    between atoms: _229  and  _230
REMARK   94  A    between atoms: _229  and  _232
REMARK   95  A    between atoms: _232  and  _233
REMARK   96  A    between atoms: _233  and  _234
REMARK   97  A    between atoms: _234  and  _235
REMARK   98  A    between atoms: _244  and  _246
REMARK   99  A    between atoms: _246  and  _247
REMARK  100  A    between atoms: _246  and  _249
REMARK  101  A    between atoms: _249  and  _250
REMARK  102  A    between atoms: _250  and  _251
REMARK  103  A    between atoms: _254  and  _256
REMARK  104  A    between atoms: _256  and  _257
REMARK  105  A    between atoms: _256  and  _259
REMARK  106  A    between atoms: _259  and  _260
REMARK  107  A    between atoms: _263  and  _265
REMARK  108  A    between atoms: _265  and  _266
REMARK  109  A    between atoms: _265  and  _268
REMARK  110  A    between atoms: _268  and  _269
REMARK  111  A    between atoms: _272  and  _274
REMARK  112  A    between atoms: _274  and  _275
REMARK  113  A    between atoms: _274  and  _277
REMARK  114  A    between atoms: _277  and  _278
REMARK  115  A    between atoms: _281  and  _283
REMARK  116  A    between atoms: _283  and  _284
REMARK  117  A    between atoms: _283  and  _286
REMARK  118  A    between atoms: _286  and  _287
REMARK  119  A    between atoms: _287  and  _288
REMARK  120  A    between atoms: _293  and  _295
REMARK  121  A    between atoms: _295  and  _296
REMARK  122  A    between atoms: _298  and  _300
REMARK  123  A    between atoms: _300  and  _301
REMARK  124  A    between atoms: _300  and  _303
REMARK  125  A    between atoms: _303  and  _304
REMARK  126  A    between atoms: _307  and  _309
REMARK  127  A    between atoms: _309  and  _310
REMARK  128  A    between atoms: _309  and  _312
REMARK  129  A    between atoms: _312  and  _313
REMARK  130  A    between atoms: _318  and  _320
REMARK  131  A    between atoms: _320  and  _321
REMARK  132  A    between atoms: _320  and  _323
REMARK  133  A    between atoms: _323  and  _324
REMARK  134  A    between atoms: _327  and  _329
REMARK  135  A    between atoms: _329  and  _330
REMARK  136  A    between atoms: _329  and  _332
REMARK  137  A    between atoms: _332  and  _333
REMARK  138  A    between atoms: _335  and  _337
REMARK  139  A    between atoms: _337  and  _338
REMARK  140  A    between atoms: _337  and  _340
REMARK  141  A    between atoms: _340  and  _341
REMARK  142  A    between atoms: _341  and  _342
REMARK  143  A    between atoms: _347  and  _349
REMARK  144  A    between atoms: _349  and  _350
REMARK  145  A    between atoms: _349  and  _352
REMARK  146  A    between atoms: _352  and  _353
REMARK  147  A    between atoms: _356  and  _358
REMARK  148  A    between atoms: _358  and  _359
REMARK  149  A    between atoms: _358  and  _361
REMARK  150  A    between atoms: _364  and  _366
REMARK  151  A    between atoms: _366  and  _367
REMARK  152  A    between atoms: _366  and  _369
REMARK  153  A    between atoms: _369  and  _370
REMARK  154  A    between atoms: _370  and  _371
REMARK  155  A    between atoms: _371  and  _372
REMARK  156  A    between atoms: _381  and  _383
REMARK  157  A    between atoms: _383  and  _384
REMARK  158  A    between atoms: _383  and  _386
REMARK  159  A    between atoms: _386  and  _387
REMARK  160  A    between atoms: _390  and  _392
REMARK  161  A    between atoms: _392  and  _393
REMARK  162  A    between atoms: _392  and  _395
REMARK  163  A    between atoms: _395  and  _396
REMARK  164  A    between atoms: _406  and  _408
REMARK  165  A    between atoms: _408  and  _409
REMARK  166  A    between atoms: _408  and  _411
REMARK  167  A    between atoms: _411  and  _412
REMARK  168  A    between atoms: _416  and  _417
REMARK  169  A    between atoms: _422  and  _424
REMARK  170  A    between atoms: _424  and  _425
REMARK  171  A    between atoms: _424  and  _427
REMARK  172  A    between atoms: _427  and  _428
REMARK  173  A    between atoms: _434  and  _435
REMARK  174  A    between atoms: _440  and  _442
REMARK  175  A    between atoms: _442  and  _443
REMARK  176  A    between atoms: _445  and  _447
REMARK  177  A    between atoms: _447  and  _448
REMARK  178  A    between atoms: _447  and  _450
REMARK  179  A    between atoms: _450  and  _451
REMARK  180  A    between atoms: _454  and  _456
REMARK  181  A    between atoms: _456  and  _457
REMARK  182  A    between atoms: _456  and  _459
REMARK  183  A    between atoms: _459  and  _460
REMARK  184  A    between atoms: _460  and  _461
REMARK  185  A    between atoms: _461  and  _462
REMARK  186  A    between atoms: _462  and  _463
REMARK  187  A    between atoms: _467  and  _469
REMARK  188  A    between atoms: _469  and  _470
REMARK  189  A    between atoms: _469  and  _472
REMARK  190  A    between atoms: _475  and  _477
REMARK  191  A    between atoms: _477  and  _478
REMARK  192  A    between atoms: _481  and  _483
REMARK  193  A    between atoms: _483  and  _484
REMARK  194  A    between atoms: _483  and  _486
REMARK  195  A    between atoms: _486  and  _487
REMARK  196  A    between atoms: _490  and  _492
REMARK  197  A    between atoms: _492  and  _493
REMARK  198  A    between atoms: _492  and  _495
REMARK  199  A    between atoms: _495  and  _496
REMARK  200  A    between atoms: _502  and  _503
REMARK  201  A    between atoms: _508  and  _510
REMARK  202  A    between atoms: _510  and  _511
REMARK  203  A    between atoms: _510  and  _513
REMARK  204  A    between atoms: _513  and  _514
REMARK  205  A    between atoms: _520  and  _522
REMARK  206  A    between atoms: _522  and  _523
REMARK  207  A    between atoms: _522  and  _525
REMARK  208  A    between atoms: _525  and  _526
REMARK  209  A    between atoms: _529  and  _531
REMARK  210  A    between atoms: _531  and  _532
REMARK  211  A    between atoms: _534  and  _536
REMARK  212  A    between atoms: _536  and  _537
REMARK  213  A    between atoms: _536  and  _539
REMARK  214  A    between atoms: _539  and  _540
REMARK  215  A    between atoms: _543  and  _545
REMARK  216  A    between atoms: _545  and  _546
REMARK  217  A    between atoms: _545  and  _548
REMARK  218  A    between atoms: _548  and  _549
REMARK  219  A    between atoms: _555  and  _557
REMARK  220  A    between atoms: _557  and  _558
REMARK  221  A    between atoms: _557  and  _560
REMARK  222  A    between atoms: _560  and  _561
REMARK  223  A    between atoms: _561  and  _562
REMARK  224  A    between atoms: _567  and  _569
REMARK  225  A    between atoms: _569  and  _570
REMARK  226  A    between atoms: _569  and  _572
REMARK  227  A    between atoms: _572  and  _573
REMARK  228  A    between atoms: _576  and  _578
REMARK  229  A    between atoms: _578  and  _579
REMARK  230  A    between atoms: _578  and  _581
REMARK  231  A    between atoms: _581  and  _582
REMARK  232  A    between atoms: _584  and  _586
REMARK  233  A    between atoms: _586  and  _587
REMARK  234  A    between atoms: _586  and  _589
REMARK  235  A    between atoms: _589  and  _590
REMARK  236  A    between atoms: _596  and  _598
REMARK  237  A    between atoms: _598  and  _599
REMARK  238  A    between atoms: _598  and  _601
REMARK  239  A    between atoms: _601  and  _602
REMARK  240  A    between atoms: _607  and  _608
REMARK  241  A    between atoms: _610  and  _612
REMARK  242  A    between atoms: _612  and  _613
REMARK  243  A    between atoms: _612  and  _615
REMARK  244  A    between atoms: _615  and  _616
REMARK                            x       y       z     vdW  Elec       q    Type
REMARK                         _______ _______ _______ _____ _____    ______ ____
ROOT
ATOM      1  CA  GLN A   3     -31.227  -8.562  43.768  0.00  0.00    +0.149 C 
ENDROOT
BRANCH   1   2
ATOM      2  C   GLN A   3     -30.226  -8.606  44.931  0.00  0.00    +0.241 C 
ATOM      3  O   GLN A   3     -30.085  -9.624  45.613  0.00  0.00    -0.273 OA
ATOM      4  N   GLY A   4     -29.548  -7.492  45.178  0.00  0.00    -0.295 N 
ATOM      5  H   GLY A   4     -29.682  -6.661  44.567  0.00  0.00    +0.150 HD
BRANCH   4   6
ATOM      6  CA  GLY A   4     -28.621  -7.422  46.294  0.00  0.00    +0.176 C 
BRANCH   6   7
ATOM      7  C   GLY A   4     -29.276  -7.634  47.643  0.00  0.00    +0.243 C 
ATOM      8  N   THR A   5     -28.574  -8.299  48.550  0.00  0.00    -0.296 N 
ATOM      9  H   THR A   5     -27.618  -8.639  48.323  0.00  0.00    +0.150 HD
ATOM     10  O   GLY A   4     -30.415  -7.230  47.862  0.00  0.00    -0.273 OA
BRANCH   8  11
ATOM     11  CA  THR A   5     -29.144  -8.551  49.862  0.00  0.00    +0.164 C 
BRANCH  11  12
ATOM     12  C   THR A   5     -29.147  -7.288  50.712  0.00  0.00    +0.229 C 
ATOM     13  O   THR A   5     -28.392  -6.335  50.444  0.00  0.00    -0.286 OA
ENDBRANCH  11  12
BRANCH  11  14
ATOM     14  CB  THR A   5     -28.344  -9.601  50.612  0.00  0.00    +0.136 C 
ATOM     15  CG2 THR A   5     -28.389 -10.924  49.893  0.00  0.00    +0.034 C 
BRANCH  14  16
ATOM     16  OG1 THR A   5     -27.003  -9.136  50.691  0.00  0.00    -0.382 OA
ATOM     17  HG1 THR A   5     -26.643  -9.012  49.777  0.00  0.00    +0.210 HD
ENDBRANCH  14  16
ENDBRANCH  11  14
ENDBRANCH   8  11
ENDBRANCH   6   7
ENDBRANCH   4   6
ENDBRANCH   1   2
BRANCH   1  19
ATOM     18  C   THR A   2     -29.765  -9.685  42.193  0.00  0.00    +0.243 C 
ATOM     19  N   GLN A   3     -30.930  -9.623  42.829  0.00  0.00    -0.297 N 
ATOM     20  H   GLN A   3     -31.646 -10.355  42.648  0.00  0.00    +0.150 HD
ATOM     21  O   THR A   2     -28.923  -8.770  42.215  0.00  0.00    -0.273 OA
BRANCH  18  22
ATOM     22  CA  THR A   2     -29.535 -10.970  41.414  0.00  0.00    +0.176 C 
BRANCH  22  24
ATOM     23  C   ASP A   1     -29.071 -11.200  39.045  0.00  0.00    +0.239 C 
ATOM     24  N   THR A   2     -28.647 -10.828  40.251  0.00  0.00    -0.295 N 
ATOM     25  H   THR A   2     -27.690 -10.438  40.370  0.00  0.00    +0.150 HD
ATOM     26  O   ASP A   1     -30.238 -11.510  38.841  0.00  0.00    -0.274 OA
BRANCH  23  27
ATOM     27  CA  ASP A   1     -28.045 -11.234  37.893  0.00  0.00    +0.156 C 
BRANCH  27  28
ATOM     28  N   ASP A   1     -28.273 -12.433  37.088  0.00  0.00    -0.238 NA
ATOM     29  H   ASP A   1     -29.148 -12.517  36.533  0.00  0.00    +0.142 HD
ENDBRANCH  27  28
BRANCH  27  30
ATOM     30  CB  ASP A   1     -28.134  -9.983  37.011  0.00  0.00    +0.140 C 
BRANCH  30  31
ATOM     31  CG  ASP A   1     -27.601  -8.731  37.698  0.00  0.00    +0.367 C 
ATOM     32  OD2 ASP A   1     -26.821  -8.854  38.681  0.00  0.00    -0.246 OA
ATOM     33  OD1 ASP A   1     -27.970  -7.615  37.245  0.00  0.00    -0.246 OA
ENDBRANCH  30  31
ENDBRANCH  27  30
ENDBRANCH  23  27
ENDBRANCH  22  24
BRANCH  22  34
ATOM     34  CB  THR A   2     -29.044 -12.069  42.398  0.00  0.00    +0.137 C 
ATOM     35  CG2 THR A   2     -28.742 -13.341  41.641  0.00  0.00    +0.034 C 
BRANCH  34  36
ATOM     36  OG1 THR A   2     -27.873 -11.630  43.122  0.00  0.00    -0.382 OA
ATOM     37  HG1 THR A   2     -27.146 -11.429  42.481  0.00  0.00    +0.210 HD
ENDBRANCH  34  36
ENDBRANCH  22  34
ENDBRANCH  18  22
ENDBRANCH   1  19
BRANCH   1  38
ATOM     38  CB  GLN A   3     -32.660  -8.734  44.302  0.00  0.00    +0.039 C 
BRANCH  38  39
ATOM     39  CG  GLN A   3     -33.029  -7.739  45.387  0.00  0.00    +0.087 C 
BRANCH  39  40
ATOM     40  CD  GLN A   3     -34.478  -7.889  45.891  0.00  0.00    +0.219 C 
ATOM     41  NE2 GLN A   3     -34.728  -7.398  47.099  0.00  0.00    -0.329 N 
ATOM     42 HE21 GLN A   3     -33.967  -6.945  47.644  0.00  0.00    +0.145 HD
ATOM     43 HE22 GLN A   3     -35.685  -7.466  47.500  0.00  0.00    +0.145 HD
ATOM     44  OE1 GLN A   3     -35.347  -8.436  45.204  0.00  0.00    -0.275 OA
ENDBRANCH  39  40
ENDBRANCH  38  39
ENDBRANCH   1  38
TORSDOF 19
REMARK  Name = ../refined-set-2016/4ido/4ido_pocket.pdb
REMARK  244 active torsions:
REMARK  status: ('A' for Active; 'I' for Inactive)
REMARK    1  A    between atoms: _1  and  _3
REMARK    2  A    between atoms: _3  and  _4
REMARK    3  A    between atoms: _3  and  _6
REMARK    4  A    between atoms: _9  and  _11
REMARK    5  A    between atoms: _11  and  _12
REMARK    6  A    between atoms: _15  and  _17
REMARK    7  A    between atoms: _17  and  _18
REMARK    8  A    between atoms: _20  and  _22
REMARK    9  A    between atoms: _22  and  _23
REMARK   10  A    between atoms: _26  and  _28
REMARK   11  A    between atoms: _28  and  _29
REMARK   12  A    between atoms: _28  and  _31
REMARK   13  A    between atoms: _31  and  _32
REMARK   14  A    between atoms: _38  and  _40
REMARK   15  A    between atoms: _40  and  _41
REMARK   16  A    between atoms: _40  and  _43
REMARK   17  A    between atoms: _43  and  _44
REMARK   18  A    between atoms: _44  and  _45
REMARK   19  A    between atoms: _45  and  _46
REMARK   20  A    between atoms: _55  and  _57
REMARK   21  A    between atoms: _57  and  _58
REMARK   22  A    between atoms: _57  and  _60
REMARK   23  A    between atoms: _60  and  _61
REMARK   24  A    between atoms: _61  and  _62
REMARK   25  A    between atoms: _62  and  _63
REMARK   26  A    between atoms: _63  and  _64
REMARK   27  A    between atoms: _68  and  _70
REMARK   28  A    between atoms: _70  and  _71
REMARK   29  A    between atoms: _73  and  _75
REMARK   30  A    between atoms: _75  and  _76
REMARK   31  A    between atoms: _75  and  _78
REMARK   32  A    between atoms: _78  and  _79
REMARK   33  A    between atoms: _79  and  _80
REMARK   34  A    between atoms: _80  and  _81
REMARK   35  A    between atoms: _81  and  _82
REMARK   36  A    between atoms: _86  and  _88
REMARK   37  A    between atoms: _88  and  _89
REMARK   38  A    between atoms: _88  and  _91
REMARK   39  A    between atoms: _91  and  _92
REMARK   40  A    between atoms: _94  and  _96
REMARK   41  A    between atoms: _96  and  _97
REMARK   42  A    between atoms: _96  and  _99
REMARK   43  A    between atoms: _99  and  _100
REMARK   44  A    between atoms: _106  and  _108
REMARK   45  A    between atoms: _108  and  _109
REMARK   46  A    between atoms: _108  and  _111
REMARK   47  A    between atoms: _111  and  _112
REMARK   48  A    between atoms: _115  and  _117
REMARK   49  A    between atoms: _117  and  _118
REMARK   50  A    between atoms: _117  and  _120
REMARK   51  A    between atoms: _120  and  _121
REMARK   52  A    between atoms: _121  and  _122
REMARK   53  A    between atoms: _124  and  _126
REMARK   54  A    between atoms: _126  and  _127
REMARK   55  A    between atoms: _126  and  _129
REMARK   56  A    between atoms: _129  and  _130
REMARK   57  A    between atoms: _133  and  _135
REMARK   58  A    between atoms: _135  and  _136
REMARK   59  A    between atoms: _135  and  _138
REMARK   60  A    between atoms: _138  and  _139
REMARK   61  A    between atoms: _145  and  _147
REMARK   62  A    between atoms: _147  and  _148
REMARK   63  A    between atoms: _147  and  _150
REMARK   64  A    between atoms: _150  and  _151
REMARK   65  A    between atoms: _154  and  _156
REMARK   66  A    between atoms: _156  and  _157
REMARK   67  A    between atoms: _156  and  _159
REMARK   68  A    between atoms: _159  and  _160
REMARK   69  A    between atoms: _166  and  _168
REMARK   70  A    between atoms: _168  and  _169
REMARK   71  A    between atoms: _168  and  _171
REMARK   72  A    between atoms: _171  and  _172
REMARK   73  A    between atoms: _174  and  _176
REMARK   74  A    between atoms: _176  and  _177
REMARK   75  A    between atoms: _176  and  _179
REMARK   76  A    between atoms: _179  and  _180
REMARK   77  A    between atoms: _190  and  _192
REMARK   78  A    between atoms: _192  and  _193
REMARK   79  A    between atoms: _192  and  _195
REMARK   80  A    between atoms: _195  and  _196
REMARK   81  A    between atoms: _196  and  _197
REMARK   82  A    between atoms: _197  and  _198
REMARK   83  A    between atoms: _207  and  _209
REMARK   84  A    between atoms: _209  and  _210
REMARK   85  A    between atoms: _212  and  _214
REMARK   86  A    between atoms: _214  and  _215
REMARK   87  A    between atoms: _217  and  _219
REMARK   88  A    between atoms: _219  and  _220
REMARK   89  A    between atoms: _219  and  _222
REMARK   90  A    between atoms: _222  and  _223
REMARK   91  A    between atoms: _223  and  _224
REMARK   92  A    between atoms: _227  and  _229
REMARK   93  A    between atoms: _229  and  _230
REMARK   94  A    between atoms: _229  and  _232
REMARK   95  A    between atoms: _232  and  _233
REMARK   96  A    between atoms: _233  and  _234
REMARK   97  A    between atoms: _234  and  _235
REMARK   98  A    between atoms: _244  and  _246
REMARK   99  A    between atoms: _246  and  _247
REMARK  100  A    between atoms: _246  and  _249
REMARK  101  A    between atoms: _249  and  _250
REMARK  102  A    between atoms: _250  and  _251
REMARK  103  A    between atoms: _254  and  _256
REMARK  104  A    between atoms: _256  and  _257
REMARK  105  A    between atoms: _256  and  _259
REMARK  106  A    between atoms: _259  and  _260
REMARK  107  A    between atoms: _263  and  _265
REMARK  108  A    between atoms: _265  and  _266
REMARK  109  A    between atoms: _265  and  _268
REMARK  110  A    between atoms: _268  and  _269
REMARK  111  A    between atoms: _272  and  _274
REMARK  112  A    between atoms: _274  and  _275
REMARK  113  A    between atoms: _274  and  _277
REMARK  114  A    between atoms: _277  and  _278
REMARK  115  A    between atoms: _281  and  _283
REMARK  116  A    between atoms: _283  and  _284
REMARK  117  A    between atoms: _283  and  _286
REMARK  118  A    between atoms: _286  and  _287
REMARK  119  A    between atoms: _287  and  _288
REMARK  120  A    between atoms: _293  and  _295
REMARK  121  A    between atoms: _295  and  _296
REMARK  122  A    between atoms: _298  and  _300
REMARK  123  A    between atoms: _300  and  _301
REMARK  124  A    between atoms: _300  and  _303
REMARK  125  A    between atoms: _303  and  _304
REMARK  126  A    between atoms: _307  and  _309
REMARK  127  A    between atoms: _309  and  _310
REMARK  128  A    between atoms: _309  and  _312
REMARK  129  A    between atoms: _312  and  _313
REMARK  130  A    between atoms: _318  and  _320
REMARK  131  A    between atoms: _320  and  _321
REMARK  132  A    between atoms: _320  and  _323
REMARK  133  A    between atoms: _323  and  _324
REMARK  134  A    between atoms: _327  and  _329
REMARK  135  A    between atoms: _329  and  _330
REMARK  136  A    between atoms: _329  and  _332
REMARK  137  A    between atoms: _332  and  _333
REMARK  138  A    between atoms: _335  and  _337
REMARK  139  A    between atoms: _337  and  _338
REMARK  140  A    between atoms: _337  and  _340
REMARK  141  A    between atoms: _340  and  _341
REMARK  142  A    between atoms: _341  and  _342
REMARK  143  A    between atoms: _347  and  _349
REMARK  144  A    between atoms: _349  and  _350
REMARK  145  A    between atoms: _349  and  _352
REMARK  146  A    between atoms: _352  and  _353
REMARK  147  A    between atoms: _356  and  _358
REMARK  148  A    between atoms: _358  and  _359
REMARK  149  A    between atoms: _358  and  _361
REMARK  150  A    between atoms: _364  and  _366
REMARK  151  A    between atoms: _366  and  _367
REMARK  152  A    between atoms: _366  and  _369
REMARK  153  A    between atoms: _369  and  _370
REMARK  154  A    between atoms: _370  and  _371
REMARK  155  A    between atoms: _371  and  _372
REMARK  156  A    between atoms: _381  and  _383
REMARK  157  A    between atoms: _383  and  _384
REMARK  158  A    between atoms: _383  and  _386
REMARK  159  A    between atoms: _386  and  _387
REMARK  160  A    between atoms: _390  and  _392
REMARK  161  A    between atoms: _392  and  _393
REMARK  162  A    between atoms: _392  and  _395
REMARK  163  A    between atoms: _395  and  _396
REMARK  164  A    between atoms: _406  and  _408
REMARK  165  A    between atoms: _408  and  _409
REMARK  166  A    between atoms: _408  and  _411
REMARK  167  A    between atoms: _411  and  _412
REMARK  168  A    between atoms: _416  and  _417
REMARK  169  A    between atoms: _422  and  _424
REMARK  170  A    between atoms: _424  and  _425
REMARK  171  A    between atoms: _424  and  _427
REMARK  172  A    between atoms: _427  and  _428
REMARK  173  A    between atoms: _434  and  _435
REMARK  174  A    between atoms: _440  and  _442
REMARK  175  A    between atoms: _442  and  _443
REMARK  176  A    between atoms: _445  and  _447
REMARK  177  A    between atoms: _447  and  _448
REMARK  178  A    between atoms: _447  and  _450
REMARK  179  A    between atoms: _450  and  _451
REMARK  180  A    between atoms: _454  and  _456
REMARK  181  A    between atoms: _456  and  _457
REMARK  182  A    between atoms: _456  and  _459
REMARK  183  A    between atoms: _459  and  _460
REMARK  184  A    between atoms: _460  and  _461
REMARK  185  A    between atoms: _461  and  _462
REMARK  186  A    between atoms: _462  and  _463
REMARK  187  A    between atoms: _467  and  _469
REMARK  188  A    between atoms: _469  and  _470
REMARK  189  A    between atoms: _469  and  _472
REMARK  190  A    between atoms: _475  and  _477
REMARK  191  A    between atoms: _477  and  _478
REMARK  192  A    between atoms: _481  and  _483
REMARK  193  A    between atoms: _483  and  _484
REMARK  194  A    between atoms: _483  and  _486
REMARK  195  A    between atoms: _486  and  _487
REMARK  196  A    between atoms: _490  and  _492
REMARK  197  A    between atoms: _492  and  _493
REMARK  198  A    between atoms: _492  and  _495
REMARK  199  A    between atoms: _495  and  _496
REMARK  200  A    between atoms: _502  and  _503
REMARK  201  A    between atoms: _508  and  _510
REMARK  202  A    between atoms: _510  and  _511
REMARK  203  A    between atoms: _510  and  _513
REMARK  204  A    between atoms: _513  and  _514
REMARK  205  A    between atoms: _520  and  _522
REMARK  206  A    between atoms: _522  and  _523
REMARK  207  A    between atoms: _522  and  _525
REMARK  208  A    between atoms: _525  and  _526
REMARK  209  A    between atoms: _529  and  _531
REMARK  210  A    between atoms: _531  and  _532
REMARK  211  A    between atoms: _534  and  _536
REMARK  212  A    between atoms: _536  and  _537
REMARK  213  A    between atoms: _536  and  _539
REMARK  214  A    between atoms: _539  and  _540
REMARK  215  A    between atoms: _543  and  _545
REMARK  216  A    between atoms: _545  and  _546
REMARK  217  A    between atoms: _545  and  _548
REMARK  218  A    between atoms: _548  and  _549
REMARK  219  A    between atoms: _555  and  _557
REMARK  220  A    between atoms: _557  and  _558
REMARK  221  A    between atoms: _557  and  _560
REMARK  222  A    between atoms: _560  and  _561
REMARK  223  A    between atoms: _561  and  _562
REMARK  224  A    between atoms: _567  and  _569
REMARK  225  A    between atoms: _569  and  _570
REMARK  226  A    between atoms: _569  and  _572
REMARK  227  A    between atoms: _572  and  _573
REMARK  228  A    between atoms: _576  and  _578
REMARK  229  A    between atoms: _578  and  _579
REMARK  230  A    between atoms: _578  and  _581
REMARK  231  A    between atoms: _581  and  _582
REMARK  232  A    between atoms: _584  and  _586
REMARK  233  A    between atoms: _586  and  _587
REMARK  234  A    between atoms: _586  and  _589
REMARK  235  A    between atoms: _589  and  _590
REMARK  236  A    between atoms: _596  and  _598
REMARK  237  A    between atoms: _598  and  _599
REMARK  238  A    between atoms: _598  and  _601
REMARK  239  A    between atoms: _601  and  _602
REMARK  240  A    between atoms: _607  and  _608
REMARK  241  A    between atoms: _610  and  _612
REMARK  242  A    between atoms: _612  and  _613
REMARK  243  A    between atoms: _612  and  _615
REMARK  244  A    between atoms: _615  and  _616
REMARK                            x       y       z     vdW  Elec       q    Type
REMARK                         _______ _______ _______ _____ _____    ______ ____
ROOT
ATOM      1  C   LEU A   2     -17.442  -6.927  48.599  0.00  0.00    +0.241 C 
ATOM      2  N   SER A   3     -17.616  -6.055  49.582  0.00  0.00    -0.295 N 
ATOM      3  H   SER A   3     -18.222  -6.306  50.389  0.00  0.00    +0.150 HD
ATOM      4  O   LEU A   2     -16.759  -6.694  47.607  0.00  0.00    -0.273 OA
ENDROOT
BRANCH   2   5
ATOM      5  CA  SER A   3     -16.970  -4.751  49.547  0.00  0.00    +0.178 C 
BRANCH   5   6
ATOM      6  C   SER A   3     -15.793  -4.660  50.538  0.00  0.00    +0.243 C 
ATOM      7  O   SER A   3     -15.990  -4.817  51.745  0.00  0.00    -0.273 OA
ATOM      8  N   GLN A   4     -14.583  -4.425  50.011  0.00  0.00    -0.298 N 
ATOM      9  H   GLN A   4     -14.487  -4.479  48.977  0.00  0.00    +0.150 HD
BRANCH   8  10
ATOM     10  CA  GLN A   4     -13.368  -4.092  50.801  0.00  0.00    +0.137 C 
BRANCH  10  11
ATOM     11  C   GLN A   4     -12.693  -5.216  51.570  0.00  0.00    +0.227 C 
ATOM     12  O   GLN A   4     -11.467  -5.276  51.610  0.00  0.00    -0.286 OA
ENDBRANCH  10  11
BRANCH  10  13
ATOM     13  CB  GLN A   4     -13.601  -2.937  51.790  0.00  0.00    +0.037 C 
BRANCH  13  14
ATOM     14  CG  GLN A   4     -13.903  -1.572  51.172  0.00  0.00    +0.087 C 
BRANCH  14  15
ATOM     15  CD  GLN A   4     -14.074  -0.500  52.259  0.00  0.00    +0.219 C 
ATOM     16  OE1 GLN A   4     -13.976  -0.797  53.438  0.00  0.00    -0.275 OA
ATOM     17  NE2 GLN A   4     -14.334   0.734  51.858  0.00  0.00    -0.329 N 
ATOM     18 HE21 GLN A   4     -14.463   1.492  52.558  0.00  0.00    +0.145 HD
ATOM     19 HE22 GLN A   4     -14.410   0.946  50.843  0.00  0.00    +0.145 HD
ENDBRANCH  14  15
ENDBRANCH  13  14
ENDBRANCH  10  13
ENDBRANCH   8  10
ENDBRANCH   5   6
BRANCH   5  20
ATOM     20  CB  SER A   3     -18.007  -3.661  49.837  0.00  0.00    +0.166 C 
BRANCH  20  21
ATOM     21  OG  SER A   3     -17.442  -2.374  49.669  0.00  0.00    -0.380 OA
ATOM     22  H   SER A   3     -17.124  -2.274  48.737  0.00  0.00    +0.211 HD
ENDBRANCH  20  21
ENDBRANCH   5  20
ENDBRANCH   2   5
BRANCH   1  23
ATOM     23  CA  LEU A   2     -18.133  -8.272  48.763  0.00  0.00    +0.149 C 
BRANCH  23  26
ATOM     24  C   ASN A   1     -19.454  -9.320  47.005  0.00  0.00    +0.239 C 
ATOM     25  O   ASN A   1     -20.505  -9.138  47.616  0.00  0.00    -0.274 OA
ATOM     26  N   LEU A   2     -18.267  -8.934  47.467  0.00  0.00    -0.297 N 
ATOM     27  H   LEU A   2     -17.417  -9.107  46.894  0.00  0.00    +0.150 HD
BRANCH  24  28
ATOM     28  CA  ASN A   1     -19.466 -10.017  45.662  0.00  0.00    +0.154 C 
BRANCH  28  29
ATOM     29  N   ASN A   1     -20.030 -11.350  45.813  0.00  0.00    -0.238 NA
ATOM     30  H   ASN A   1     -21.057 -11.467  45.698  0.00  0.00    +0.142 HD
ENDBRANCH  28  29
BRANCH  28  31
ATOM     31  CB  ASN A   1     -20.315  -9.226  44.659  0.00  0.00    +0.111 C 
BRANCH  31  32
ATOM     32  CG  ASN A   1     -19.672  -7.942  44.220  0.00  0.00    +0.221 C 
ATOM     33  ND2 ASN A   1     -20.304  -6.823  44.547  0.00  0.00    -0.329 N 
ATOM     34 HD21 ASN A   1     -21.173  -6.864  45.117  0.00  0.00    +0.145 HD
ATOM     35 HD22 ASN A   1     -19.931  -5.904  44.234  0.00  0.00    +0.145 HD
ATOM     36  OD1 ASN A   1     -18.642  -7.952  43.549  0.00  0.00    -0.275 OA
ENDBRANCH  31  32
ENDBRANCH  28  31
ENDBRANCH  24  28
ENDBRANCH  23  26
BRANCH  23  37
ATOM     37  CB  LEU A   2     -17.328  -9.121  49.750  0.00  0.00    +0.029 C 
BRANCH  37  38
ATOM     38  CG  LEU A   2     -17.838 -10.533  49.993  0.00  0.00    +0.002 C 
ATOM     39  CD2 LEU A   2     -18.131 -10.773  51.466  0.00  0.00    +0.000 C 
ATOM     40  CD1 LEU A   2     -16.842 -11.520  49.465  0.00  0.00    +0.000 C 
ENDBRANCH  37  38
ENDBRANCH  23  37
ENDBRANCH   1  23
TORSDOF 17
REMARK  Name = ../refined-set-2016/4ido/4ido_pocket.pdb
REMARK  244 active torsions:
REMARK  status: ('A' for Active; 'I' for Inactive)
REMARK    1  A    between atoms: _1  and  _3
REMARK    2  A    between atoms: _3  and  _4
REMARK    3  A    between atoms: _3  and  _6
REMARK    4  A    between atoms: _9  and  _11
REMARK    5  A    between atoms: _11  and  _12
REMARK    6  A    between atoms: _15  and  _17
REMARK    7  A    between atoms: _17  and  _18
REMARK    8  A    between atoms: _20  and  _22
REMARK    9  A    between atoms: _22  and  _23
REMARK   10  A    between atoms: _26  and  _28
REMARK   11  A    between atoms: _28  and  _29
REMARK   12  A    between atoms: _28  and  _31
REMARK   13  A    between atoms: _31  and  _32
REMARK   14  A    between atoms: _38  and  _40
REMARK   15  A    between atoms: _40  and  _41
REMARK   16  A    between atoms: _40  and  _43
REMARK   17  A    between atoms: _43  and  _44
REMARK   18  A    between atoms: _44  and  _45
REMARK   19  A    between atoms: _45  and  _46
REMARK   20  A    between atoms: _55  and  _57
REMARK   21  A    between atoms: _57  and  _58
REMARK   22  A    between atoms: _57  and  _60
REMARK   23  A    between atoms: _60  and  _61
REMARK   24  A    between atoms: _61  and  _62
REMARK   25  A    between atoms: _62  and  _63
REMARK   26  A    between atoms: _63  and  _64
REMARK   27  A    between atoms: _68  and  _70
REMARK   28  A    between atoms: _70  and  _71
REMARK   29  A    between atoms: _73  and  _75
REMARK   30  A    between atoms: _75  and  _76
REMARK   31  A    between atoms: _75  and  _78
REMARK   32  A    between atoms: _78  and  _79
REMARK   33  A    between atoms: _79  and  _80
REMARK   34  A    between atoms: _80  and  _81
REMARK   35  A    between atoms: _81  and  _82
REMARK   36  A    between atoms: _86  and  _88
REMARK   37  A    between atoms: _88  and  _89
REMARK   38  A    between atoms: _88  and  _91
REMARK   39  A    between atoms: _91  and  _92
REMARK   40  A    between atoms: _94  and  _96
REMARK   41  A    between atoms: _96  and  _97
REMARK   42  A    between atoms: _96  and  _99
REMARK   43  A    between atoms: _99  and  _100
REMARK   44  A    between atoms: _106  and  _108
REMARK   45  A    between atoms: _108  and  _109
REMARK   46  A    between atoms: _108  and  _111
REMARK   47  A    between atoms: _111  and  _112
REMARK   48  A    between atoms: _115  and  _117
REMARK   49  A    between atoms: _117  and  _118
REMARK   50  A    between atoms: _117  and  _120
REMARK   51  A    between atoms: _120  and  _121
REMARK   52  A    between atoms: _121  and  _122
REMARK   53  A    between atoms: _124  and  _126
REMARK   54  A    between atoms: _126  and  _127
REMARK   55  A    between atoms: _126  and  _129
REMARK   56  A    between atoms: _129  and  _130
REMARK   57  A    between atoms: _133  and  _135
REMARK   58  A    between atoms: _135  and  _136
REMARK   59  A    between atoms: _135  and  _138
REMARK   60  A    between atoms: _138  and  _139
REMARK   61  A    between atoms: _145  and  _147
REMARK   62  A    between atoms: _147  and  _148
REMARK   63  A    between atoms: _147  and  _150
REMARK   64  A    between atoms: _150  and  _151
REMARK   65  A    between atoms: _154  and  _156
REMARK   66  A    between atoms: _156  and  _157
REMARK   67  A    between atoms: _156  and  _159
REMARK   68  A    between atoms: _159  and  _160
REMARK   69  A    between atoms: _166  and  _168
REMARK   70  A    between atoms: _168  and  _169
REMARK   71  A    between atoms: _168  and  _171
REMARK   72  A    between atoms: _171  and  _172
REMARK   73  A    between atoms: _174  and  _176
REMARK   74  A    between atoms: _176  and  _177
REMARK   75  A    between atoms: _176  and  _179
REMARK   76  A    between atoms: _179  and  _180
REMARK   77  A    between atoms: _190  and  _192
REMARK   78  A    between atoms: _192  and  _193
REMARK   79  A    between atoms: _192  and  _195
REMARK   80  A    between atoms: _195  and  _196
REMARK   81  A    between atoms: _196  and  _197
REMARK   82  A    between atoms: _197  and  _198
REMARK   83  A    between atoms: _207  and  _209
REMARK   84  A    between atoms: _209  and  _210
REMARK   85  A    between atoms: _212  and  _214
REMARK   86  A    between atoms: _214  and  _215
REMARK   87  A    between atoms: _217  and  _219
REMARK   88  A    between atoms: _219  and  _220
REMARK   89  A    between atoms: _219  and  _222
REMARK   90  A    between atoms: _222  and  _223
REMARK   91  A    between atoms: _223  and  _224
REMARK   92  A    between atoms: _227  and  _229
REMARK   93  A    between atoms: _229  and  _230
REMARK   94  A    between atoms: _229  and  _232
REMARK   95  A    between atoms: _232  and  _233
REMARK   96  A    between atoms: _233  and  _234
REMARK   97  A    between atoms: _234  and  _235
REMARK   98  A    between atoms: _244  and  _246
REMARK   99  A    between atoms: _246  and  _247
REMARK  100  A    between atoms: _246  and  _249
REMARK  101  A    between atoms: _249  and  _250
REMARK  102  A    between atoms: _250  and  _251
REMARK  103  A    between atoms: _254  and  _256
REMARK  104  A    between atoms: _256  and  _257
REMARK  105  A    between atoms: _256  and  _259
REMARK  106  A    between atoms: _259  and  _260
REMARK  107  A    between atoms: _263  and  _265
REMARK  108  A    between atoms: _265  and  _266
REMARK  109  A    between atoms: _265  and  _268
REMARK  110  A    between atoms: _268  and  _269
REMARK  111  A    between atoms: _272  and  _274
REMARK  112  A    between atoms: _274  and  _275
REMARK  113  A    between atoms: _274  and  _277
REMARK  114  A    between atoms: _277  and  _278
REMARK  115  A    between atoms: _281  and  _283
REMARK  116  A    between atoms: _283  and  _284
REMARK  117  A    between atoms: _283  and  _286
REMARK  118  A    between atoms: _286  and  _287
REMARK  119  A    between atoms: _287  and  _288
REMARK  120  A    between atoms: _293  and  _295
REMARK  121  A    between atoms: _295  and  _296
REMARK  122  A    between atoms: _298  and  _300
REMARK  123  A    between atoms: _300  and  _301
REMARK  124  A    between atoms: _300  and  _303
REMARK  125  A    between atoms: _303  and  _304
REMARK  126  A    between atoms: _307  and  _309
REMARK  127  A    between atoms: _309  and  _310
REMARK  128  A    between atoms: _309  and  _312
REMARK  129  A    between atoms: _312  and  _313
REMARK  130  A    between atoms: _318  and  _320
REMARK  131  A    between atoms: _320  and  _321
REMARK  132  A    between atoms: _320  and  _323
REMARK  133  A    between atoms: _323  and  _324
REMARK  134  A    between atoms: _327  and  _329
REMARK  135  A    between atoms: _329  and  _330
REMARK  136  A    between atoms: _329  and  _332
REMARK  137  A    between atoms: _332  and  _333
REMARK  138  A    between atoms: _335  and  _337
REMARK  139  A    between atoms: _337  and  _338
REMARK  140  A    between atoms: _337  and  _340
REMARK  141  A    between atoms: _340  and  _341
REMARK  142  A    between atoms: _341  and  _342
REMARK  143  A    between atoms: _347  and  _349
REMARK  144  A    between atoms: _349  and  _350
REMARK  145  A    between atoms: _349  and  _352
REMARK  146  A    between atoms: _352  and  _353
REMARK  147  A    between atoms: _356  and  _358
REMARK  148  A    between atoms: _358  and  _359
REMARK  149  A    between atoms: _358  and  _361
REMARK  150  A    between atoms: _364  and  _366
REMARK  151  A    between atoms: _366  and  _367
REMARK  152  A    between atoms: _366  and  _369
REMARK  153  A    between atoms: _369  and  _370
REMARK  154  A    between atoms: _370  and  _371
REMARK  155  A    between atoms: _371  and  _372
REMARK  156  A    between atoms: _381  and  _383
REMARK  157  A    between atoms: _383  and  _384
REMARK  158  A    between atoms: _383  and  _386
REMARK  159  A    between atoms: _386  and  _387
REMARK  160  A    between atoms: _390  and  _392
REMARK  161  A    between atoms: _392  and  _393
REMARK  162  A    between atoms: _392  and  _395
REMARK  163  A    between atoms: _395  and  _396
REMARK  164  A    between atoms: _406  and  _408
REMARK  165  A    between atoms: _408  and  _409
REMARK  166  A    between atoms: _408  and  _411
REMARK  167  A    between atoms: _411  and  _412
REMARK  168  A    between atoms: _416  and  _417
REMARK  169  A    between atoms: _422  and  _424
REMARK  170  A    between atoms: _424  and  _425
REMARK  171  A    between atoms: _424  and  _427
REMARK  172  A    between atoms: _427  and  _428
REMARK  173  A    between atoms: _434  and  _435
REMARK  174  A    between atoms: _440  and  _442
REMARK  175  A    between atoms: _442  and  _443
REMARK  176  A    between atoms: _445  and  _447
REMARK  177  A    between atoms: _447  and  _448
REMARK  178  A    between atoms: _447  and  _450
REMARK  179  A    between atoms: _450  and  _451
REMARK  180  A    between atoms: _454  and  _456
REMARK  181  A    between atoms: _456  and  _457
REMARK  182  A    between atoms: _456  and  _459
REMARK  183  A    between atoms: _459  and  _460
REMARK  184  A    between atoms: _460  and  _461
REMARK  185  A    between atoms: _461  and  _462
REMARK  186  A    between atoms: _462  and  _463
REMARK  187  A    between atoms: _467  and  _469
REMARK  188  A    between atoms: _469  and  _470
REMARK  189  A    between atoms: _469  and  _472
REMARK  190  A    between atoms: _475  and  _477
REMARK  191  A    between atoms: _477  and  _478
REMARK  192  A    between atoms: _481  and  _483
REMARK  193  A    between atoms: _483  and  _484
REMARK  194  A    between atoms: _483  and  _486
REMARK  195  A    between atoms: _486  and  _487
REMARK  196  A    between atoms: _490  and  _492
REMARK  197  A    between atoms: _492  and  _493
REMARK  198  A    between atoms: _492  and  _495
REMARK  199  A    between atoms: _495  and  _496
REMARK  200  A    between atoms: _502  and  _503
REMARK  201  A    between atoms: _508  and  _510
REMARK  202  A    between atoms: _510  and  _511
REMARK  203  A    between atoms: _510  and  _513
REMARK  204  A    between atoms: _513  and  _514
REMARK  205  A    between atoms: _520  and  _522
REMARK  206  A    between atoms: _522  and  _523
REMARK  207  A    between atoms: _522  and  _525
REMARK  208  A    between atoms: _525  and  _526
REMARK  209  A    between atoms: _529  and  _531
REMARK  210  A    between atoms: _531  and  _532
REMARK  211  A    between atoms: _534  and  _536
REMARK  212  A    between atoms: _536  and  _537
REMARK  213  A    between atoms: _536  and  _539
REMARK  214  A    between atoms: _539  and  _540
REMARK  215  A    between atoms: _543  and  _545
REMARK  216  A    between atoms: _545  and  _546
REMARK  217  A    between atoms: _545  and  _548
REMARK  218  A    between atoms: _548  and  _549
REMARK  219  A    between atoms: _555  and  _557
REMARK  220  A    between atoms: _557  and  _558
REMARK  221  A    between atoms: _557  and  _560
REMARK  222  A    between atoms: _560  and  _561
REMARK  223  A    between atoms: _561  and  _562
REMARK  224  A    between atoms: _567  and  _569
REMARK  225  A    between atoms: _569  and  _570
REMARK  226  A    between atoms: _569  and  _572
REMARK  227  A    between atoms: _572  and  _573
REMARK  228  A    between atoms: _576  and  _578
REMARK  229  A    between atoms: _578  and  _579
REMARK  230  A    between atoms: _578  and  _581
REMARK  231  A    between atoms: _581  and  _582
REMARK  232  A    between atoms: _584  and  _586
REMARK  233  A    between atoms: _586  and  _587
REMARK  234  A    between atoms: _586  and  _589
REMARK  235  A    between atoms: _589  and  _590
REMARK  236  A    between atoms: _596  and  _598
REMARK  237  A    between atoms: _598  and  _599
REMARK  238  A    between atoms: _598  and  _601
REMARK  239  A    between atoms: _601  and  _602
REMARK  240  A    between atoms: _607  and  _608
REMARK  241  A    between atoms: _610  and  _612
REMARK  242  A    between atoms: _612  and  _613
REMARK  243  A    between atoms: _612  and  _615
REMARK  244  A    between atoms: _615  and  _616
REMARK                            x       y       z     vdW  Elec       q    Type
REMARK                         _______ _______ _______ _____ _____    ______ ____
ROOT
ATOM      1  CA  ARG A   3     -14.383  -5.116  45.400  0.00  0.00    +0.149 C 
ENDROOT
BRANCH   1   3
ATOM      2  C   VAL A   2     -13.365  -7.199  46.182  0.00  0.00    +0.241 C 
ATOM      3  N   ARG A   3     -14.438  -6.425  46.047  0.00  0.00    -0.297 N 
ATOM      4  H   ARG A   3     -15.350  -6.764  46.415  0.00  0.00    +0.150 HD
ATOM      5  O   VAL A   2     -12.279  -6.946  45.651  0.00  0.00    -0.273 OA
BRANCH   2   6
ATOM      6  CA  VAL A   2     -13.549  -8.458  47.045  0.00  0.00    +0.148 C 
BRANCH   6   8
ATOM      7  C   LEU A   1     -14.833 -10.064  45.766  0.00  0.00    +0.238 C 
ATOM      8  N   VAL A   2     -13.640  -9.632  46.184  0.00  0.00    -0.297 N 
ATOM      9  H   VAL A   2     -12.776 -10.133  45.895  0.00  0.00    +0.150 HD
ATOM     10  O   LEU A   1     -15.887  -9.513  46.074  0.00  0.00    -0.274 OA
BRANCH   7  11
ATOM     11  CA  LEU A   1     -14.848 -11.300  44.886  0.00  0.00    +0.145 C 
BRANCH  11  12
ATOM     12  N   LEU A   1     -15.382 -12.449  45.604  0.00  0.00    -0.238 NA
ATOM     13  H   LEU A   1     -16.412 -12.579  45.669  0.00  0.00    +0.142 HD
ENDBRANCH  11  12
BRANCH  11  14
ATOM     14  CB  LEU A   1     -15.672 -11.026  43.639  0.00  0.00    +0.026 C 
BRANCH  14  15
ATOM     15  CG  LEU A   1     -15.227  -9.774  42.879  0.00  0.00    +0.002 C 
ATOM     16  CD2 LEU A   1     -13.782  -9.908  42.404  0.00  0.00    +0.000 C 
ATOM     17  CD1 LEU A   1     -16.137  -9.569  41.715  0.00  0.00    +0.000 C 
ENDBRANCH  14  15
ENDBRANCH  11  14
ENDBRANCH   7  11
ENDBRANCH   6   8
BRANCH   6  18
ATOM     18  CB  VAL A   2     -12.386  -8.555  48.061  0.00  0.00    +0.027 C 
ATOM     19  CG2 VAL A   2     -12.443  -7.366  49.039  0.00  0.00    +0.002 C 
ATOM     20  CG1 VAL A   2     -12.421  -9.868  48.822  0.00  0.00    +0.002 C 
ENDBRANCH   6  18
ENDBRANCH   2   6
ENDBRANCH   1   3
BRANCH   1  21
ATOM     21  C   ARG A   3     -13.643  -4.106  46.269  0.00  0.00    +0.241 C 
ATOM     22  O   ARG A   3     -13.652  -4.206  47.500  0.00  0.00    -0.273 OA
ATOM     23  N   ASP A   4     -13.001  -3.135  45.622  0.00  0.00    -0.297 N 
ATOM     24  H   ASP A   4     -12.990  -3.143  44.582  0.00  0.00    +0.150 HD
BRANCH  23  25
ATOM     25  CA  ASP A   4     -12.311  -2.058  46.332  0.00  0.00    +0.160 C 
BRANCH  25  26
ATOM     26  C   ASP A   4     -11.270  -2.553  47.349  0.00  0.00    +0.241 C 
ATOM     27  O   ASP A   4     -11.082  -1.938  48.394  0.00  0.00    -0.273 OA
ATOM     28  N   TRP A   5     -10.611  -3.665  47.048  0.00  0.00    -0.298 N 
ATOM     29  H   TRP A   5     -10.878  -4.207  46.202  0.00  0.00    +0.150 HD
BRANCH  28  30
ATOM     30  CA  TRP A   5      -9.521  -4.134  47.886  0.00  0.00    +0.141 C 
BRANCH  30  31
ATOM     31  C   TRP A   5      -8.507  -3.010  48.030  0.00  0.00    +0.227 C 
ATOM     32  O   TRP A   5      -8.112  -2.388  47.038  0.00  0.00    -0.286 OA
ENDBRANCH  30  31
BRANCH  30  33
ATOM     33  CB  TRP A   5      -8.851  -5.343  47.250  0.00  0.00    +0.056 C 
BRANCH  33  34
ATOM     34  CG  TRP A   5      -7.688  -5.814  48.013  0.00  0.00    -0.002 A 
ATOM     35  CD2 TRP A   5      -7.703  -6.408  49.320  0.00  0.00    +0.013 A 
ATOM     36  CE3 TRP A   5      -8.725  -6.733  50.234  0.00  0.00    +0.001 A 
ATOM     37  CZ3 TRP A   5      -8.383  -7.356  51.431  0.00  0.00    +0.000 A 
ATOM     38  CH2 TRP A   5      -7.029  -7.634  51.743  0.00  0.00    +0.001 A 
ATOM     39  CZ2 TRP A   5      -6.009  -7.330  50.866  0.00  0.00    +0.017 A 
ATOM     40  CE2 TRP A   5      -6.362  -6.717  49.652  0.00  0.00    +0.056 A 
ATOM     41  NE1 TRP A   5      -5.574  -6.310  48.604  0.00  0.00    -0.352 N 
ATOM     42  HE1 TRP A   5      -4.539  -6.406  48.557  0.00  0.00    +0.166 HD
ATOM     43  CD1 TRP A   5      -6.367  -5.756  47.626  0.00  0.00    +0.068 A 
ENDBRANCH  33  34
ENDBRANCH  30  33
ENDBRANCH  28  30
ENDBRANCH  25  26
BRANCH  25  44
ATOM     44  CB  ASP A   4     -13.319  -1.134  47.032  0.00  0.00    +0.143 C 
BRANCH  44  45
ATOM     45  CG  ASP A   4     -14.336  -0.516  46.062  0.00  0.00    +0.367 C 
ATOM     46  OD2 ASP A   4     -15.250   0.173  46.532  0.00  0.00    -0.246 OA
ATOM     47  OD1 ASP A   4     -14.200  -0.668  44.838  0.00  0.00    -0.246 OA
ENDBRANCH  44  45
ENDBRANCH  25  44
ENDBRANCH  23  25
ENDBRANCH   1  21
BRANCH   1  48
ATOM     48  CB  ARG A   3     -15.800  -4.591  45.110  0.00  0.00    +0.033 C 
BRANCH  48  49
ATOM     49  CG  ARG A   3     -16.696  -5.569  44.358  0.00  0.00    +0.045 C 
BRANCH  49  50
ATOM     50  CD  ARG A   3     -16.172  -5.848  42.957  0.00  0.00    +0.174 C 
BRANCH  50  51
ATOM     51  NE  ARG A   3     -16.676  -4.892  41.981  0.00  0.00    -0.265 N 
ATOM     52  HE  ARG A   3     -16.168  -3.990  41.878  0.00  0.00    +0.259 HD
ATOM     53  CZ  ARG A   3     -17.742  -5.095  41.212  0.00  0.00    +0.342 C 
ATOM     54  NH2 ARG A   3     -18.425  -6.227  41.315  0.00  0.00    -0.292 N 
ATOM     55 HH21 ARG A   3     -18.127  -6.954  41.996  0.00  0.00    +0.255 HD
ATOM     56 HH22 ARG A   3     -19.259  -6.388  40.715  0.00  0.00    +0.255 HD
ATOM     57  NH1 ARG A   3     -18.132  -4.165  40.351  0.00  0.00    -0.292 N 
ATOM     58 HH11 ARG A   3     -17.604  -3.272  40.275  0.00  0.00    +0.255 HD
ATOM     59 HH12 ARG A   3     -18.966  -4.328  39.752  0.00  0.00    +0.255 HD
ENDBRANCH  50  51
ENDBRANCH  49  50
ENDBRANCH  48  49
ENDBRANCH   1  48
TORSDOF 21
REMARK  Name = ../refined-set-2016/4ido/4ido_pocket.pdb
REMARK  244 active torsions:
REMARK  status: ('A' for Active; 'I' for Inactive)
REMARK    1  A    between atoms: _1  and  _3
REMARK    2  A    between atoms: _3  and  _4
REMARK    3  A    between atoms: _3  and  _6
REMARK    4  A    between atoms: _9  and  _11
REMARK    5  A    between atoms: _11  and  _12
REMARK    6  A    between atoms: _15  and  _17
REMARK    7  A    between atoms: _17  and  _18
REMARK    8  A    between atoms: _20  and  _22
REMARK    9  A    between atoms: _22  and  _23
REMARK   10  A    between atoms: _26  and  _28
REMARK   11  A    between atoms: _28  and  _29
REMARK   12  A    between atoms: _28  and  _31
REMARK   13  A    between atoms: _31  and  _32
REMARK   14  A    between atoms: _38  and  _40
REMARK   15  A    between atoms: _40  and  _41
REMARK   16  A    between atoms: _40  and  _43
REMARK   17  A    between atoms: _43  and  _44
REMARK   18  A    between atoms: _44  and  _45
REMARK   19  A    between atoms: _45  and  _46
REMARK   20  A    between atoms: _55  and  _57
REMARK   21  A    between atoms: _57  and  _58
REMARK   22  A    between atoms: _57  and  _60
REMARK   23  A    between atoms: _60  and  _61
REMARK   24  A    between atoms: _61  and  _62
REMARK   25  A    between atoms: _62  and  _63
REMARK   26  A    between atoms: _63  and  _64
REMARK   27  A    between atoms: _68  and  _70
REMARK   28  A    between atoms: _70  and  _71
REMARK   29  A    between atoms: _73  and  _75
REMARK   30  A    between atoms: _75  and  _76
REMARK   31  A    between atoms: _75  and  _78
REMARK   32  A    between atoms: _78  and  _79
REMARK   33  A    between atoms: _79  and  _80
REMARK   34  A    between atoms: _80  and  _81
REMARK   35  A    between atoms: _81  and  _82
REMARK   36  A    between atoms: _86  and  _88
REMARK   37  A    between atoms: _88  and  _89
REMARK   38  A    between atoms: _88  and  _91
REMARK   39  A    between atoms: _91  and  _92
REMARK   40  A    between atoms: _94  and  _96
REMARK   41  A    between atoms: _96  and  _97
REMARK   42  A    between atoms: _96  and  _99
REMARK   43  A    between atoms: _99  and  _100
REMARK   44  A    between atoms: _106  and  _108
REMARK   45  A    between atoms: _108  and  _109
REMARK   46  A    between atoms: _108  and  _111
REMARK   47  A    between atoms: _111  and  _112
REMARK   48  A    between atoms: _115  and  _117
REMARK   49  A    between atoms: _117  and  _118
REMARK   50  A    between atoms: _117  and  _120
REMARK   51  A    between atoms: _120  and  _121
REMARK   52  A    between atoms: _121  and  _122
REMARK   53  A    between atoms: _124  and  _126
REMARK   54  A    between atoms: _126  and  _127
REMARK   55  A    between atoms: _126  and  _129
REMARK   56  A    between atoms: _129  and  _130
REMARK   57  A    between atoms: _133  and  _135
REMARK   58  A    between atoms: _135  and  _136
REMARK   59  A    between atoms: _135  and  _138
REMARK   60  A    between atoms: _138  and  _139
REMARK   61  A    between atoms: _145  and  _147
REMARK   62  A    between atoms: _147  and  _148
REMARK   63  A    between atoms: _147  and  _150
REMARK   64  A    between atoms: _150  and  _151
REMARK   65  A    between atoms: _154  and  _156
REMARK   66  A    between atoms: _156  and  _157
REMARK   67  A    between atoms: _156  and  _159
REMARK   68  A    between atoms: _159  and  _160
REMARK   69  A    between atoms: _166  and  _168
REMARK   70  A    between atoms: _168  and  _169
REMARK   71  A    between atoms: _168  and  _171
REMARK   72  A    between atoms: _171  and  _172
REMARK   73  A    between atoms: _174  and  _176
REMARK   74  A    between atoms: _176  and  _177
REMARK   75  A    between atoms: _176  and  _179
REMARK   76  A    between atoms: _179  and  _180
REMARK   77  A    between atoms: _190  and  _192
REMARK   78  A    between atoms: _192  and  _193
REMARK   79  A    between atoms: _192  and  _195
REMARK   80  A    between atoms: _195  and  _196
REMARK   81  A    between atoms: _196  and  _197
REMARK   82  A    between atoms: _197  and  _198
REMARK   83  A    between atoms: _207  and  _209
REMARK   84  A    between atoms: _209  and  _210
REMARK   85  A    between atoms: _212  and  _214
REMARK   86  A    between atoms: _214  and  _215
REMARK   87  A    between atoms: _217  and  _219
REMARK   88  A    between atoms: _219  and  _220
REMARK   89  A    between atoms: _219  and  _222
REMARK   90  A    between atoms: _222  and  _223
REMARK   91  A    between atoms: _223  and  _224
REMARK   92  A    between atoms: _227  and  _229
REMARK   93  A    between atoms: _229  and  _230
REMARK   94  A    between atoms: _229  and  _232
REMARK   95  A    between atoms: _232  and  _233
REMARK   96  A    between atoms: _233  and  _234
REMARK   97  A    between atoms: _234  and  _235
REMARK   98  A    between atoms: _244  and  _246
REMARK   99  A    between atoms: _246  and  _247
REMARK  100  A    between atoms: _246  and  _249
REMARK  101  A    between atoms: _249  and  _250
REMARK  102  A    between atoms: _250  and  _251
REMARK  103  A    between atoms: _254  and  _256
REMARK  104  A    between atoms: _256  and  _257
REMARK  105  A    between atoms: _256  and  _259
REMARK  106  A    between atoms: _259  and  _260
REMARK  107  A    between atoms: _263  and  _265
REMARK  108  A    between atoms: _265  and  _266
REMARK  109  A    between atoms: _265  and  _268
REMARK  110  A    between atoms: _268  and  _269
REMARK  111  A    between atoms: _272  and  _274
REMARK  112  A    between atoms: _274  and  _275
REMARK  113  A    between atoms: _274  and  _277
REMARK  114  A    between atoms: _277  and  _278
REMARK  115  A    between atoms: _281  and  _283
REMARK  116  A    between atoms: _283  and  _284
REMARK  117  A    between atoms: _283  and  _286
REMARK  118  A    between atoms: _286  and  _287
REMARK  119  A    between atoms: _287  and  _288
REMARK  120  A    between atoms: _293  and  _295
REMARK  121  A    between atoms: _295  and  _296
REMARK  122  A    between atoms: _298  and  _300
REMARK  123  A    between atoms: _300  and  _301
REMARK  124  A    between atoms: _300  and  _303
REMARK  125  A    between atoms: _303  and  _304
REMARK  126  A    between atoms: _307  and  _309
REMARK  127  A    between atoms: _309  and  _310
REMARK  128  A    between atoms: _309  and  _312
REMARK  129  A    between atoms: _312  and  _313
REMARK  130  A    between atoms: _318  and  _320
REMARK  131  A    between atoms: _320  and  _321
REMARK  132  A    between atoms: _320  and  _323
REMARK  133  A    between atoms: _323  and  _324
REMARK  134  A    between atoms: _327  and  _329
REMARK  135  A    between atoms: _329  and  _330
REMARK  136  A    between atoms: _329  and  _332
REMARK  137  A    between atoms: _332  and  _333
REMARK  138  A    between atoms: _335  and  _337
REMARK  139  A    between atoms: _337  and  _338
REMARK  140  A    between atoms: _337  and  _340
REMARK  141  A    between atoms: _340  and  _341
REMARK  142  A    between atoms: _341  and  _342
REMARK  143  A    between atoms: _347  and  _349
REMARK  144  A    between atoms: _349  and  _350
REMARK  145  A    between atoms: _349  and  _352
REMARK  146  A    between atoms: _352  and  _353
REMARK  147  A    between atoms: _356  and  _358
REMARK  148  A    between atoms: _358  and  _359
REMARK  149  A    between atoms: _358  and  _361
REMARK  150  A    between atoms: _364  and  _366
REMARK  151  A    between atoms: _366  and  _367
REMARK  152  A    between atoms: _366  and  _369
REMARK  153  A    between atoms: _369  and  _370
REMARK  154  A    between atoms: _370  and  _371
REMARK  155  A    between atoms: _371  and  _372
REMARK  156  A    between atoms: _381  and  _383
REMARK  157  A    between atoms: _383  and  _384
REMARK  158  A    between atoms: _383  and  _386
REMARK  159  A    between atoms: _386  and  _387
REMARK  160  A    between atoms: _390  and  _392
REMARK  161  A    between atoms: _392  and  _393
REMARK  162  A    between atoms: _392  and  _395
REMARK  163  A    between atoms: _395  and  _396
REMARK  164  A    between atoms: _406  and  _408
REMARK  165  A    between atoms: _408  and  _409
REMARK  166  A    between atoms: _408  and  _411
REMARK  167  A    between atoms: _411  and  _412
REMARK  168  A    between atoms: _416  and  _417
REMARK  169  A    between atoms: _422  and  _424
REMARK  170  A    between atoms: _424  and  _425
REMARK  171  A    between atoms: _424  and  _427
REMARK  172  A    between atoms: _427  and  _428
REMARK  173  A    between atoms: _434  and  _435
REMARK  174  A    between atoms: _440  and  _442
REMARK  175  A    between atoms: _442  and  _443
REMARK  176  A    between atoms: _445  and  _447
REMARK  177  A    between atoms: _447  and  _448
REMARK  178  A    between atoms: _447  and  _450
REMARK  179  A    between atoms: _450  and  _451
REMARK  180  A    between atoms: _454  and  _456
REMARK  181  A    between atoms: _456  and  _457
REMARK  182  A    between atoms: _456  and  _459
REMARK  183  A    between atoms: _459  and  _460
REMARK  184  A    between atoms: _460  and  _461
REMARK  185  A    between atoms: _461  and  _462
REMARK  186  A    between atoms: _462  and  _463
REMARK  187  A    between atoms: _467  and  _469
REMARK  188  A    between atoms: _469  and  _470
REMARK  189  A    between atoms: _469  and  _472
REMARK  190  A    between atoms: _475  and  _477
REMARK  191  A    between atoms: _477  and  _478
REMARK  192  A    between atoms: _481  and  _483
REMARK  193  A    between atoms: _483  and  _484
REMARK  194  A    between atoms: _483  and  _486
REMARK  195  A    between atoms: _486  and  _487
REMARK  196  A    between atoms: _490  and  _492
REMARK  197  A    between atoms: _492  and  _493
REMARK  198  A    between atoms: _492  and  _495
REMARK  199  A    between atoms: _495  and  _496
REMARK  200  A    between atoms: _502  and  _503
REMARK  201  A    between atoms: _508  and  _510
REMARK  202  A    between atoms: _510  and  _511
REMARK  203  A    between atoms: _510  and  _513
REMARK  204  A    between atoms: _513  and  _514
REMARK  205  A    between atoms: _520  and  _522
REMARK  206  A    between atoms: _522  and  _523
REMARK  207  A    between atoms: _522  and  _525
REMARK  208  A    between atoms: _525  and  _526
REMARK  209  A    between atoms: _529  and  _531
REMARK  210  A    between atoms: _531  and  _532
REMARK  211  A    between atoms: _534  and  _536
REMARK  212  A    between atoms: _536  and  _537
REMARK  213  A    between atoms: _536  and  _539
REMARK  214  A    between atoms: _539  and  _540
REMARK  215  A    between atoms: _543  and  _545
REMARK  216  A    between atoms: _545  and  _546
REMARK  217  A    between atoms: _545  and  _548
REMARK  218  A    between atoms: _548  and  _549
REMARK  219  A    between atoms: _555  and  _557
REMARK  220  A    between atoms: _557  and  _558
REMARK  221  A    between atoms: _557  and  _560
REMARK  222  A    between atoms: _560  and  _561
REMARK  223  A    between atoms: _561  and  _562
REMARK  224  A    between atoms: _567  and  _569
REMARK  225  A    between atoms: _569  and  _570
REMARK  226  A    between atoms: _569  and  _572
REMARK  227  A    between atoms: _572  and  _573
REMARK  228  A    between atoms: _576  and  _578
REMARK  229  A    between atoms: _578  and  _579
REMARK  230  A    between atoms: _578  and  _581
REMARK  231  A    between atoms: _581  and  _582
REMARK  232  A    between atoms: _584  and  _586
REMARK  233  A    between atoms: _586  and  _587
REMARK  234  A    between atoms: _586  and  _589
REMARK  235  A    between atoms: _589  and  _590
REMARK  236  A    between atoms: _596  and  _598
REMARK  237  A    between atoms: _598  and  _599
REMARK  238  A    between atoms: _598  and  _601
REMARK  239  A    between atoms: _601  and  _602
REMARK  240  A    between atoms: _607  and  _608
REMARK  241  A    between atoms: _610  and  _612
REMARK  242  A    between atoms: _612  and  _613
REMARK  243  A    between atoms: _612  and  _615
REMARK  244  A    between atoms: _615  and  _616
REMARK                            x       y       z     vdW  Elec       q    Type
REMARK                         _______ _______ _______ _____ _____    ______ ____
ROOT
ATOM      1  CA  LYS A   7     -15.675   8.893  39.290  0.00  0.00    +0.149 C 
ENDROOT
BRANCH   1   2
ATOM      2  C   LYS A   7     -16.730   7.798  39.056  0.00  0.00    +0.241 C 
ATOM      3  N   VAL A   8     -16.281   6.547  38.969  0.00  0.00    -0.297 N 
ATOM      4  H   VAL A   8     -15.258   6.374  39.033  0.00  0.00    +0.150 HD
ATOM      5  O   LYS A   7     -17.921   8.086  38.947  0.00  0.00    -0.273 OA
BRANCH   3   6
ATOM      6  CA  VAL A   8     -17.176   5.417  38.787  0.00  0.00    +0.149 C 
BRANCH   6   7
ATOM      7  C   VAL A   8     -18.168   5.386  39.951  0.00  0.00    +0.241 C 
ATOM      8  N   ALA A   9     -17.679   5.697  41.141  0.00  0.00    -0.297 N 
ATOM      9  H   ALA A   9     -16.686   5.992  41.230  0.00  0.00    +0.150 HD
ATOM     10  O   VAL A   8     -19.353   5.106  39.776  0.00  0.00    -0.273 OA
BRANCH   8  11
ATOM     11  CA  ALA A   9     -18.527   5.628  42.333  0.00  0.00    +0.149 C 
ATOM     12  CB  ALA A   9     -17.682   5.361  43.571  0.00  0.00    +0.031 C 
BRANCH  11  13
ATOM     13  C   ALA A   9     -19.434   6.858  42.521  0.00  0.00    +0.241 C 
ATOM     14  O   ALA A   9     -20.600   6.730  42.917  0.00  0.00    -0.273 OA
ATOM     15  N   THR A  10     -18.944   8.040  42.177  0.00  0.00    -0.295 N 
ATOM     16  H   THR A  10     -18.088   8.103  41.589  0.00  0.00    +0.150 HD
BRANCH  15  17
ATOM     17  CA  THR A  10     -19.618   9.254  42.632  0.00  0.00    +0.176 C 
BRANCH  17  18
ATOM     18  C   THR A  10     -20.228  10.139  41.529  0.00  0.00    +0.243 C 
ATOM     19  O   THR A  10     -21.099  10.955  41.812  0.00  0.00    -0.273 OA
ATOM     20  N   ASN A  11     -19.761   9.998  40.293  0.00  0.00    -0.297 N 
ATOM     21  H   ASN A  11     -19.046   9.266  40.107  0.00  0.00    +0.150 HD
BRANCH  20  22
ATOM     22  CA  ASN A  11     -20.220  10.840  39.182  0.00  0.00    +0.158 C 
BRANCH  22  23
ATOM     23  C   ASN A  11     -21.564  10.381  38.619  0.00  0.00    +0.244 C 
ATOM     24  N   PRO A  12     -22.620  11.211  38.738  0.00  0.00    -0.273 N 
ATOM     25  CD  PRO A  12     -22.637  12.596  39.244  0.00  0.00    +0.094 C 
ATOM     26  CG  PRO A  12     -24.009  13.097  38.831  0.00  0.00    +0.024 C 
ATOM     27  CB  PRO A  12     -24.885  11.879  38.764  0.00  0.00    +0.030 C 
ATOM     28  CA  PRO A  12     -23.953  10.767  38.294  0.00  0.00    +0.140 C 
ATOM     29  O   ASN A  11     -21.635   9.289  38.058  0.00  0.00    -0.273 OA
BRANCH  28  30
ATOM     30  C   PRO A  12     -24.074  10.591  36.790  0.00  0.00    +0.227 C 
ATOM     31  O   PRO A  12     -25.031   9.986  36.312  0.00  0.00    -0.286 OA
ENDBRANCH  28  30
ENDBRANCH  22  23
BRANCH  22  32
ATOM     32  CB  ASN A  11     -19.185  10.827  38.060  0.00  0.00    +0.114 C 
BRANCH  32  33
ATOM     33  CG  ASN A  11     -19.496  11.842  36.944  0.00  0.00    +0.222 C 
ATOM     34  OD1 ASN A  11     -20.609  12.360  36.829  0.00  0.00    -0.275 OA
ATOM     35  ND2 ASN A  11     -18.522  12.067  36.082  0.00  0.00    -0.329 N 
ATOM     36 HD21 ASN A  11     -17.596  11.611  36.213  0.00  0.00    +0.145 HD
ATOM     37 HD22 ASN A  11     -18.680  12.700  35.272  0.00  0.00    +0.145 HD
ENDBRANCH  32  33
ENDBRANCH  22  32
ENDBRANCH  20  22
ENDBRANCH  17  18
BRANCH  17  38
ATOM     38  CB  THR A  10     -18.684  10.136  43.451  0.00  0.00    +0.137 C 
ATOM     39  CG2 THR A  10     -17.997   9.320  44.549  0.00  0.00    +0.034 C 
BRANCH  38  40
ATOM     40  OG1 THR A  10     -17.702  10.716  42.580  0.00  0.00    -0.382 OA
ATOM     41  HG1 THR A  10     -17.183   9.995  42.144  0.00  0.00    +0.210 HD
ENDBRANCH  38  40
ENDBRANCH  17  38
ENDBRANCH  15  17
ENDBRANCH  11  13
ENDBRANCH   8  11
ENDBRANCH   6   7
BRANCH   6  42
ATOM     42  CB  VAL A   8     -16.397   4.069  38.708  0.00  0.00    +0.027 C 
ATOM     43  CG2 VAL A   8     -17.375   2.887  38.770  0.00  0.00    +0.002 C 
ATOM     44  CG1 VAL A   8     -15.564   4.018  37.419  0.00  0.00    +0.002 C 
ENDBRANCH   6  42
ENDBRANCH   3   6
ENDBRANCH   1   2
BRANCH   1  47
ATOM     45  C   LEU A   6     -15.065   8.298  41.586  0.00  0.00    +0.241 C 
ATOM     46  O   LEU A   6     -16.197   8.512  41.999  0.00  0.00    -0.273 OA
ATOM     47  N   LYS A   7     -14.718   8.475  40.317  0.00  0.00    -0.297 N 
ATOM     48  H   LYS A   7     -13.729   8.311  40.041  0.00  0.00    +0.150 HD
BRANCH  45  49
ATOM     49  CA  LEU A   6     -13.974   7.798  42.536  0.00  0.00    +0.149 C 
BRANCH  49  51
ATOM     50  C   GLY A   5     -13.142   5.865  41.350  0.00  0.00    +0.243 C 
ATOM     51  N   LEU A   6     -12.916   7.064  41.869  0.00  0.00    -0.297 N 
ATOM     52  H   LEU A   6     -11.967   7.484  41.797  0.00  0.00    +0.150 HD
ATOM     53  O   GLY A   5     -14.261   5.374  41.312  0.00  0.00    -0.273 OA
BRANCH  50  54
ATOM     54  CA  GLY A   5     -11.924   5.123  40.822  0.00  0.00    +0.176 C 
BRANCH  54  56
ATOM     55  C   PRO A   4     -12.192   2.986  39.676  0.00  0.00    +0.241 C 
ATOM     56  N   GLY A   5     -12.053   3.680  40.802  0.00  0.00    -0.295 N 
ATOM     57  H   GLY A   5     -12.036   3.166  41.706  0.00  0.00    +0.150 HD
ATOM     58  O   PRO A   4     -12.103   3.490  38.556  0.00  0.00    -0.273 OA
BRANCH  55  65
ATOM     59  C   HIS A   3     -11.185   0.850  41.907  0.00  0.00    +0.244 C 
ATOM     60  O   HIS A   3     -10.082   1.041  41.389  0.00  0.00    -0.273 OA
ATOM     61  N   PRO A   4     -12.354   1.031  41.238  0.00  0.00    -0.272 N 
ATOM     62  CD  PRO A   4     -13.681   0.620  41.731  0.00  0.00    +0.094 C 
ATOM     63  CG  PRO A   4     -14.620   1.172  40.685  0.00  0.00    +0.024 C 
ATOM     64  CB  PRO A   4     -13.839   1.110  39.411  0.00  0.00    +0.031 C 
ATOM     65  CA  PRO A   4     -12.409   1.480  39.832  0.00  0.00    +0.152 C 
BRANCH  59  66
ATOM     66  CA  HIS A   3     -11.257   0.348  43.347  0.00  0.00    +0.155 C 
BRANCH  66  68
ATOM     67  C   PRO A   2     -10.165  -1.761  42.814  0.00  0.00    +0.241 C 
ATOM     68  N   HIS A   3     -10.198  -0.628  43.508  0.00  0.00    -0.297 N 
ATOM     69  H   HIS A   3      -9.437  -0.435  44.190  0.00  0.00    +0.150 HD
ATOM     70  O   PRO A   2     -11.113  -2.175  42.122  0.00  0.00    -0.273 OA
BRANCH  67  74
ATOM     71  C   LEU A   1      -9.881  -4.780  43.285  0.00  0.00    +0.241 C 
ATOM     72  O   LEU A   1     -10.445  -4.427  44.329  0.00  0.00    -0.273 OA
ATOM     73  N   PRO A   2      -9.087  -3.970  42.576  0.00  0.00    -0.272 N 
ATOM     74  CA  PRO A   2      -8.879  -2.567  42.951  0.00  0.00    +0.152 C 
ATOM     75  CB  PRO A   2      -7.846  -2.066  41.920  0.00  0.00    +0.031 C 
ATOM     76  CG  PRO A   2      -7.238  -3.279  41.327  0.00  0.00    +0.024 C 
ATOM     77  CD  PRO A   2      -8.330  -4.336  41.369  0.00  0.00    +0.094 C 
BRANCH  71  78
ATOM     78  CA  LEU A   1     -10.084  -6.186  42.735  0.00  0.00    +0.145 C 
BRANCH  78  79
ATOM     79  N   LEU A   1      -9.963  -7.158  43.821  0.00  0.00    -0.238 NA
ATOM     80  H   LEU A   1     -10.695  -7.190  44.559  0.00  0.00    +0.142 HD
ENDBRANCH  78  79
BRANCH  78  81
ATOM     81  CB  LEU A   1     -11.471  -6.300  42.087  0.00  0.00    +0.026 C 
BRANCH  81  82
ATOM     82  CG  LEU A   1     -11.786  -5.713  40.704  0.00  0.00    +0.002 C 
ATOM     83  CD2 LEU A   1     -13.270  -5.905  40.418  0.00  0.00    +0.000 C 
ATOM     84  CD1 LEU A   1     -10.935  -6.306  39.570  0.00  0.00    +0.000 C 
ENDBRANCH  81  82
ENDBRANCH  78  81
ENDBRANCH  71  78
ENDBRANCH  67  74
ENDBRANCH  66  68
BRANCH  66  85
ATOM     85  CB  HIS A   3     -11.024   1.493  44.347  0.00  0.00    +0.076 C 
BRANCH  85  86
ATOM     86  CG  HIS A   3     -12.206   2.389  44.541  0.00  0.00    +0.082 A 
ATOM     87  CD2 HIS A   3     -13.007   2.586  45.616  0.00  0.00    +0.115 A 
ATOM     88  NE2 HIS A   3     -13.938   3.529  45.262  0.00  0.00    -0.221 NA
ATOM     89  CE1 HIS A   3     -13.701   3.922  44.021  0.00  0.00    +0.199 A 
ATOM     90  ND1 HIS A   3     -12.657   3.251  43.561  0.00  0.00    -0.227 NA
ENDBRANCH  85  86
ENDBRANCH  66  85
ENDBRANCH  59  66
ENDBRANCH  55  65
ENDBRANCH  54  56
ENDBRANCH  50  54
ENDBRANCH  49  51
BRANCH  49  91
ATOM     91  CB  LEU A   6     -13.398   8.961  43.358  0.00  0.00    +0.029 C 
BRANCH  91  92
ATOM     92  CG  LEU A   6     -12.501   8.533  44.518  0.00  0.00    +0.002 C 
ATOM     93  CD2 LEU A   6     -13.242   7.627  45.485  0.00  0.00    +0.000 C 
ATOM     94  CD1 LEU A   6     -11.920   9.748  45.224  0.00  0.00    +0.000 C 
ENDBRANCH  91  92
ENDBRANCH  49  91
ENDBRANCH  45  49
ENDBRANCH   1  47
BRANCH   1  95
ATOM     95  CB  LYS A   7     -14.924   9.212  37.997  0.00  0.00    +0.029 C 
BRANCH  95  96
ATOM     96  CG  LYS A   7     -14.141  10.514  38.112  0.00  0.00    +0.000 C 
BRANCH  96  97
ATOM     97  CD  LYS A   7     -13.419  10.892  36.834  0.00  0.00    -0.024 C 
BRANCH  97  98
ATOM     98  CE  LYS A   7     -12.628  12.186  37.050  0.00  0.00    -0.086 C 
BRANCH  98  99
ATOM     99  NZ  LYS A   7     -12.369  12.947  35.791  0.00  0.00    +0.380 N 
ATOM    100  HZ1 LYS A   7     -11.831  13.809  36.013  0.00  0.00    -0.089 HD
ATOM    101  HZ2 LYS A   7     -13.275  13.206  35.351  0.00  0.00    -0.089 HD
ATOM    102  HZ3 LYS A   7     -11.821  12.354  35.135  0.00  0.00    -0.089 HD
ENDBRANCH  98  99
ENDBRANCH  97  98
ENDBRANCH  96  97
ENDBRANCH  95  96
ENDBRANCH   1  95
TORSDOF 37
REMARK  Name = ../refined-set-2016/4ido/4ido_pocket.pdb
REMARK  244 active torsions:
REMARK  status: ('A' for Active; 'I' for Inactive)
REMARK    1  A    between atoms: _1  and  _3
REMARK    2  A    between atoms: _3  and  _4
REMARK    3  A    between atoms: _3  and  _6
REMARK    4  A    between atoms: _9  and  _11
REMARK    5  A    between atoms: _11  and  _12
REMARK    6  A    between atoms: _15  and  _17
REMARK    7  A    between atoms: _17  and  _18
REMARK    8  A    between atoms: _20  and  _22
REMARK    9  A    between atoms: _22  and  _23
REMARK   10  A    between atoms: _26  and  _28
REMARK   11  A    between atoms: _28  and  _29
REMARK   12  A    between atoms: _28  and  _31
REMARK   13  A    between atoms: _31  and  _32
REMARK   14  A    between atoms: _38  and  _40
REMARK   15  A    between atoms: _40  and  _41
REMARK   16  A    between atoms: _40  and  _43
REMARK   17  A    between atoms: _43  and  _44
REMARK   18  A    between atoms: _44  and  _45
REMARK   19  A    between atoms: _45  and  _46
REMARK   20  A    between atoms: _55  and  _57
REMARK   21  A    between atoms: _57  and  _58
REMARK   22  A    between atoms: _57  and  _60
REMARK   23  A    between atoms: _60  and  _61
REMARK   24  A    between atoms: _61  and  _62
REMARK   25  A    between atoms: _62  and  _63
REMARK   26  A    between atoms: _63  and  _64
REMARK   27  A    between atoms: _68  and  _70
REMARK   28  A    between atoms: _70  and  _71
REMARK   29  A    between atoms: _73  and  _75
REMARK   30  A    between atoms: _75  and  _76
REMARK   31  A    between atoms: _75  and  _78
REMARK   32  A    between atoms: _78  and  _79
REMARK   33  A    between atoms: _79  and  _80
REMARK   34  A    between atoms: _80  and  _81
REMARK   35  A    between atoms: _81  and  _82
REMARK   36  A    between atoms: _86  and  _88
REMARK   37  A    between atoms: _88  and  _89
REMARK   38  A    between atoms: _88  and  _91
REMARK   39  A    between atoms: _91  and  _92
REMARK   40  A    between atoms: _94  and  _96
REMARK   41  A    between atoms: _96  and  _97
REMARK   42  A    between atoms: _96  and  _99
REMARK   43  A    between atoms: _99  and  _100
REMARK   44  A    between atoms: _106  and  _108
REMARK   45  A    between atoms: _108  and  _109
REMARK   46  A    between atoms: _108  and  _111
REMARK   47  A    between atoms: _111  and  _112
REMARK   48  A    between atoms: _115  and  _117
REMARK   49  A    between atoms: _117  and  _118
REMARK   50  A    between atoms: _117  and  _120
REMARK   51  A    between atoms: _120  and  _121
REMARK   52  A    between atoms: _121  and  _122
REMARK   53  A    between atoms: _124  and  _126
REMARK   54  A    between atoms: _126  and  _127
REMARK   55  A    between atoms: _126  and  _129
REMARK   56  A    between atoms: _129  and  _130
REMARK   57  A    between atoms: _133  and  _135
REMARK   58  A    between atoms: _135  and  _136
REMARK   59  A    between atoms: _135  and  _138
REMARK   60  A    between atoms: _138  and  _139
REMARK   61  A    between atoms: _145  and  _147
REMARK   62  A    between atoms: _147  and  _148
REMARK   63  A    between atoms: _147  and  _150
REMARK   64  A    between atoms: _150  and  _151
REMARK   65  A    between atoms: _154  and  _156
REMARK   66  A    between atoms: _156  and  _157
REMARK   67  A    between atoms: _156  and  _159
REMARK   68  A    between atoms: _159  and  _160
REMARK   69  A    between atoms: _166  and  _168
REMARK   70  A    between atoms: _168  and  _169
REMARK   71  A    between atoms: _168  and  _171
REMARK   72  A    between atoms: _171  and  _172
REMARK   73  A    between atoms: _174  and  _176
REMARK   74  A    between atoms: _176  and  _177
REMARK   75  A    between atoms: _176  and  _179
REMARK   76  A    between atoms: _179  and  _180
REMARK   77  A    between atoms: _190  and  _192
REMARK   78  A    between atoms: _192  and  _193
REMARK   79  A    between atoms: _192  and  _195
REMARK   80  A    between atoms: _195  and  _196
REMARK   81  A    between atoms: _196  and  _197
REMARK   82  A    between atoms: _197  and  _198
REMARK   83  A    between atoms: _207  and  _209
REMARK   84  A    between atoms: _209  and  _210
REMARK   85  A    between atoms: _212  and  _214
REMARK   86  A    between atoms: _214  and  _215
REMARK   87  A    between atoms: _217  and  _219
REMARK   88  A    between atoms: _219  and  _220
REMARK   89  A    between atoms: _219  and  _222
REMARK   90  A    between atoms: _222  and  _223
REMARK   91  A    between atoms: _223  and  _224
REMARK   92  A    between atoms: _227  and  _229
REMARK   93  A    between atoms: _229  and  _230
REMARK   94  A    between atoms: _229  and  _232
REMARK   95  A    between atoms: _232  and  _233
REMARK   96  A    between atoms: _233  and  _234
REMARK   97  A    between atoms: _234  and  _235
REMARK   98  A    between atoms: _244  and  _246
REMARK   99  A    between atoms: _246  and  _247
REMARK  100  A    between atoms: _246  and  _249
REMARK  101  A    between atoms: _249  and  _250
REMARK  102  A    between atoms: _250  and  _251
REMARK  103  A    between atoms: _254  and  _256
REMARK  104  A    between atoms: _256  and  _257
REMARK  105  A    between atoms: _256  and  _259
REMARK  106  A    between atoms: _259  and  _260
REMARK  107  A    between atoms: _263  and  _265
REMARK  108  A    between atoms: _265  and  _266
REMARK  109  A    between atoms: _265  and  _268
REMARK  110  A    between atoms: _268  and  _269
REMARK  111  A    between atoms: _272  and  _274
REMARK  112  A    between atoms: _274  and  _275
REMARK  113  A    between atoms: _274  and  _277
REMARK  114  A    between atoms: _277  and  _278
REMARK  115  A    between atoms: _281  and  _283
REMARK  116  A    between atoms: _283  and  _284
REMARK  117  A    between atoms: _283  and  _286
REMARK  118  A    between atoms: _286  and  _287
REMARK  119  A    between atoms: _287  and  _288
REMARK  120  A    between atoms: _293  and  _295
REMARK  121  A    between atoms: _295  and  _296
REMARK  122  A    between atoms: _298  and  _300
REMARK  123  A    between atoms: _300  and  _301
REMARK  124  A    between atoms: _300  and  _303
REMARK  125  A    between atoms: _303  and  _304
REMARK  126  A    between atoms: _307  and  _309
REMARK  127  A    between atoms: _309  and  _310
REMARK  128  A    between atoms: _309  and  _312
REMARK  129  A    between atoms: _312  and  _313
REMARK  130  A    between atoms: _318  and  _320
REMARK  131  A    between atoms: _320  and  _321
REMARK  132  A    between atoms: _320  and  _323
REMARK  133  A    between atoms: _323  and  _324
REMARK  134  A    between atoms: _327  and  _329
REMARK  135  A    between atoms: _329  and  _330
REMARK  136  A    between atoms: _329  and  _332
REMARK  137  A    between atoms: _332  and  _333
REMARK  138  A    between atoms: _335  and  _337
REMARK  139  A    between atoms: _337  and  _338
REMARK  140  A    between atoms: _337  and  _340
REMARK  141  A    between atoms: _340  and  _341
REMARK  142  A    between atoms: _341  and  _342
REMARK  143  A    between atoms: _347  and  _349
REMARK  144  A    between atoms: _349  and  _350
REMARK  145  A    between atoms: _349  and  _352
REMARK  146  A    between atoms: _352  and  _353
REMARK  147  A    between atoms: _356  and  _358
REMARK  148  A    between atoms: _358  and  _359
REMARK  149  A    between atoms: _358  and  _361
REMARK  150  A    between atoms: _364  and  _366
REMARK  151  A    between atoms: _366  and  _367
REMARK  152  A    between atoms: _366  and  _369
REMARK  153  A    between atoms: _369  and  _370
REMARK  154  A    between atoms: _370  and  _371
REMARK  155  A    between atoms: _371  and  _372
REMARK  156  A    between atoms: _381  and  _383
REMARK  157  A    between atoms: _383  and  _384
REMARK  158  A    between atoms: _383  and  _386
REMARK  159  A    between atoms: _386  and  _387
REMARK  160  A    between atoms: _390  and  _392
REMARK  161  A    between atoms: _392  and  _393
REMARK  162  A    between atoms: _392  and  _395
REMARK  163  A    between atoms: _395  and  _396
REMARK  164  A    between atoms: _406  and  _408
REMARK  165  A    between atoms: _408  and  _409
REMARK  166  A    between atoms: _408  and  _411
REMARK  167  A    between atoms: _411  and  _412
REMARK  168  A    between atoms: _416  and  _417
REMARK  169  A    between atoms: _422  and  _424
REMARK  170  A    between atoms: _424  and  _425
REMARK  171  A    between atoms: _424  and  _427
REMARK  172  A    between atoms: _427  and  _428
REMARK  173  A    between atoms: _434  and  _435
REMARK  174  A    between atoms: _440  and  _442
REMARK  175  A    between atoms: _442  and  _443
REMARK  176  A    between atoms: _445  and  _447
REMARK  177  A    between atoms: _447  and  _448
REMARK  178  A    between atoms: _447  and  _450
REMARK  179  A    between atoms: _450  and  _451
REMARK  180  A    between atoms: _454  and  _456
REMARK  181  A    between atoms: _456  and  _457
REMARK  182  A    between atoms: _456  and  _459
REMARK  183  A    between atoms: _459  and  _460
REMARK  184  A    between atoms: _460  and  _461
REMARK  185  A    between atoms: _461  and  _462
REMARK  186  A    between atoms: _462  and  _463
REMARK  187  A    between atoms: _467  and  _469
REMARK  188  A    between atoms: _469  and  _470
REMARK  189  A    between atoms: _469  and  _472
REMARK  190  A    between atoms: _475  and  _477
REMARK  191  A    between atoms: _477  and  _478
REMARK  192  A    between atoms: _481  and  _483
REMARK  193  A    between atoms: _483  and  _484
REMARK  194  A    between atoms: _483  and  _486
REMARK  195  A    between atoms: _486  and  _487
REMARK  196  A    between atoms: _490  and  _492
REMARK  197  A    between atoms: _492  and  _493
REMARK  198  A    between atoms: _492  and  _495
REMARK  199  A    between atoms: _495  and  _496
REMARK  200  A    between atoms: _502  and  _503
REMARK  201  A    between atoms: _508  and  _510
REMARK  202  A    between atoms: _510  and  _511
REMARK  203  A    between atoms: _510  and  _513
REMARK  204  A    between atoms: _513  and  _514
REMARK  205  A    between atoms: _520  and  _522
REMARK  206  A    between atoms: _522  and  _523
REMARK  207  A    between atoms: _522  and  _525
REMARK  208  A    between atoms: _525  and  _526
REMARK  209  A    between atoms: _529  and  _531
REMARK  210  A    between atoms: _531  and  _532
REMARK  211  A    between atoms: _534  and  _536
REMARK  212  A    between atoms: _536  and  _537
REMARK  213  A    between atoms: _536  and  _539
REMARK  214  A    between atoms: _539  and  _540
REMARK  215  A    between atoms: _543  and  _545
REMARK  216  A    between atoms: _545  and  _546
REMARK  217  A    between atoms: _545  and  _548
REMARK  218  A    between atoms: _548  and  _549
REMARK  219  A    between atoms: _555  and  _557
REMARK  220  A    between atoms: _557  and  _558
REMARK  221  A    between atoms: _557  and  _560
REMARK  222  A    between atoms: _560  and  _561
REMARK  223  A    between atoms: _561  and  _562
REMARK  224  A    between atoms: _567  and  _569
REMARK  225  A    between atoms: _569  and  _570
REMARK  226  A    between atoms: _569  and  _572
REMARK  227  A    between atoms: _572  and  _573
REMARK  228  A    between atoms: _576  and  _578
REMARK  229  A    between atoms: _578  and  _579
REMARK  230  A    between atoms: _578  and  _581
REMARK  231  A    between atoms: _581  and  _582
REMARK  232  A    between atoms: _584  and  _586
REMARK  233  A    between atoms: _586  and  _587
REMARK  234  A    between atoms: _586  and  _589
REMARK  235  A    between atoms: _589  and  _590
REMARK  236  A    between atoms: _596  and  _598
REMARK  237  A    between atoms: _598  and  _599
REMARK  238  A    between atoms: _598  and  _601
REMARK  239  A    between atoms: _601  and  _602
REMARK  240  A    between atoms: _607  and  _608
REMARK  241  A    between atoms: _610  and  _612
REMARK  242  A    between atoms: _612  and  _613
REMARK  243  A    between atoms: _612  and  _615
REMARK  244  A    between atoms: _615  and  _616
REMARK                            x       y       z     vdW  Elec       q    Type
REMARK                         _______ _______ _______ _____ _____    ______ ____
ROOT
ATOM      1  C   PHE A   1     -21.643   7.062  33.898  0.00  0.00    +0.239 C 
ATOM      2  O   PHE A   1     -22.641   6.658  34.496  0.00  0.00    -0.274 OA
ATOM      3  N   ASP A   2     -21.285   6.599  32.704  0.00  0.00    -0.297 N 
ATOM      4  H   ASP A   2     -20.416   6.952  32.256  0.00  0.00    +0.150 HD
ENDROOT
BRANCH   1   5
ATOM      5  CA  PHE A   1     -20.747   8.125  34.526  0.00  0.00    +0.149 C 
BRANCH   5   6
ATOM      6  N   PHE A   1     -21.557   9.264  34.927  0.00  0.00    -0.238 NA
ATOM      7  H   PHE A   1     -21.543   9.575  35.919  0.00  0.00    +0.142 HD
ENDBRANCH   5   6
BRANCH   5   8
ATOM      8  CB  PHE A   1     -20.023   7.531  35.739  0.00  0.00    +0.053 C 
BRANCH   8   9
ATOM      9  CG  PHE A   1     -19.288   6.258  35.433  0.00  0.00    -0.020 A 
ATOM     10  CD2 PHE A   1     -19.684   5.054  36.000  0.00  0.00    -0.004 A 
ATOM     11  CE2 PHE A   1     -19.009   3.871  35.712  0.00  0.00    -0.000 A 
ATOM     12  CZ  PHE A   1     -17.922   3.887  34.833  0.00  0.00    -0.000 A 
ATOM     13  CE1 PHE A   1     -17.531   5.086  34.239  0.00  0.00    -0.000 A 
ATOM     14  CD1 PHE A   1     -18.213   6.264  34.544  0.00  0.00    -0.004 A 
ENDBRANCH   8   9
ENDBRANCH   5   8
ENDBRANCH   1   5
BRANCH   3  15
ATOM     15  CA  ASP A   2     -22.102   5.595  32.011  0.00  0.00    +0.160 C 
BRANCH  15  16
ATOM     16  C   ASP A   2     -21.321   4.334  31.614  0.00  0.00    +0.241 C 
ATOM     17  N   GLY A   3     -20.231   4.071  32.326  0.00  0.00    -0.296 N 
ATOM     18  H   GLY A   3     -19.878   4.772  33.009  0.00  0.00    +0.150 HD
ATOM     19  O   ASP A   2     -21.696   3.609  30.694  0.00  0.00    -0.273 OA
BRANCH  17  20
ATOM     20  CA  GLY A   3     -19.527   2.808  32.157  0.00  0.00    +0.163 C 
BRANCH  20  21
ATOM     21  C   GLY A   3     -18.405   2.807  31.140  0.00  0.00    +0.229 C 
ATOM     22  O   GLY A   3     -17.929   1.742  30.778  0.00  0.00    -0.286 OA
ENDBRANCH  20  21
ENDBRANCH  17  20
ENDBRANCH  15  16
BRANCH  15  23
ATOM     23  CB  ASP A   2     -22.904   6.216  30.848  0.00  0.00    +0.143 C 
BRANCH  23  24
ATOM     24  CG  ASP A   2     -22.040   6.602  29.654  0.00  0.00    +0.367 C 
ATOM     25  OD2 ASP A   2     -20.808   6.733  29.788  0.00  0.00    -0.246 OA
ATOM     26  OD1 ASP A   2     -22.615   6.821  28.567  0.00  0.00    -0.246 OA
ENDBRANCH  23  24
ENDBRANCH  15  23
ENDBRANCH   3  15
TORSDOF 10
REMARK  Name = ../refined-set-2016/4ido/4ido_pocket.pdb
REMARK  244 active torsions:
REMARK  status: ('A' for Active; 'I' for Inactive)
REMARK    1  A    between atoms: _1  and  _3
REMARK    2  A    between atoms: _3  and  _4
REMARK    3  A    between atoms: _3  and  _6
REMARK    4  A    between atoms: _9  and  _11
REMARK    5  A    between atoms: _11  and  _12
REMARK    6  A    between atoms: _15  and  _17
REMARK    7  A    between atoms: _17  and  _18
REMARK    8  A    between atoms: _20  and  _22
REMARK    9  A    between atoms: _22  and  _23
REMARK   10  A    between atoms: _26  and  _28
REMARK   11  A    between atoms: _28  and  _29
REMARK   12  A    between atoms: _28  and  _31
REMARK   13  A    between atoms: _31  and  _32
REMARK   14  A    between atoms: _38  and  _40
REMARK   15  A    between atoms: _40  and  _41
REMARK   16  A    between atoms: _40  and  _43
REMARK   17  A    between atoms: _43  and  _44
REMARK   18  A    between atoms: _44  and  _45
REMARK   19  A    between atoms: _45  and  _46
REMARK   20  A    between atoms: _55  and  _57
REMARK   21  A    between atoms: _57  and  _58
REMARK   22  A    between atoms: _57  and  _60
REMARK   23  A    between atoms: _60  and  _61
REMARK   24  A    between atoms: _61  and  _62
REMARK   25  A    between atoms: _62  and  _63
REMARK   26  A    between atoms: _63  and  _64
REMARK   27  A    between atoms: _68  and  _70
REMARK   28  A    between atoms: _70  and  _71
REMARK   29  A    between atoms: _73  and  _75
REMARK   30  A    between atoms: _75  and  _76
REMARK   31  A    between atoms: _75  and  _78
REMARK   32  A    between atoms: _78  and  _79
REMARK   33  A    between atoms: _79  and  _80
REMARK   34  A    between atoms: _80  and  _81
REMARK   35  A    between atoms: _81  and  _82
REMARK   36  A    between atoms: _86  and  _88
REMARK   37  A    between atoms: _88  and  _89
REMARK   38  A    between atoms: _88  and  _91
REMARK   39  A    between atoms: _91  and  _92
REMARK   40  A    between atoms: _94  and  _96
REMARK   41  A    between atoms: _96  and  _97
REMARK   42  A    between atoms: _96  and  _99
REMARK   43  A    between atoms: _99  and  _100
REMARK   44  A    between atoms: _106  and  _108
REMARK   45  A    between atoms: _108  and  _109
REMARK   46  A    between atoms: _108  and  _111
REMARK   47  A    between atoms: _111  and  _112
REMARK   48  A    between atoms: _115  and  _117
REMARK   49  A    between atoms: _117  and  _118
REMARK   50  A    between atoms: _117  and  _120
REMARK   51  A    between atoms: _120  and  _121
REMARK   52  A    between atoms: _121  and  _122
REMARK   53  A    between atoms: _124  and  _126
REMARK   54  A    between atoms: _126  and  _127
REMARK   55  A    between atoms: _126  and  _129
REMARK   56  A    between atoms: _129  and  _130
REMARK   57  A    between atoms: _133  and  _135
REMARK   58  A    between atoms: _135  and  _136
REMARK   59  A    between atoms: _135  and  _138
REMARK   60  A    between atoms: _138  and  _139
REMARK   61  A    between atoms: _145  and  _147
REMARK   62  A    between atoms: _147  and  _148
REMARK   63  A    between atoms: _147  and  _150
REMARK   64  A    between atoms: _150  and  _151
REMARK   65  A    between atoms: _154  and  _156
REMARK   66  A    between atoms: _156  and  _157
REMARK   67  A    between atoms: _156  and  _159
REMARK   68  A    between atoms: _159  and  _160
REMARK   69  A    between atoms: _166  and  _168
REMARK   70  A    between atoms: _168  and  _169
REMARK   71  A    between atoms: _168  and  _171
REMARK   72  A    between atoms: _171  and  _172
REMARK   73  A    between atoms: _174  and  _176
REMARK   74  A    between atoms: _176  and  _177
REMARK   75  A    between atoms: _176  and  _179
REMARK   76  A    between atoms: _179  and  _180
REMARK   77  A    between atoms: _190  and  _192
REMARK   78  A    between atoms: _192  and  _193
REMARK   79  A    between atoms: _192  and  _195
REMARK   80  A    between atoms: _195  and  _196
REMARK   81  A    between atoms: _196  and  _197
REMARK   82  A    between atoms: _197  and  _198
REMARK   83  A    between atoms: _207  and  _209
REMARK   84  A    between atoms: _209  and  _210
REMARK   85  A    between atoms: _212  and  _214
REMARK   86  A    between atoms: _214  and  _215
REMARK   87  A    between atoms: _217  and  _219
REMARK   88  A    between atoms: _219  and  _220
REMARK   89  A    between atoms: _219  and  _222
REMARK   90  A    between atoms: _222  and  _223
REMARK   91  A    between atoms: _223  and  _224
REMARK   92  A    between atoms: _227  and  _229
REMARK   93  A    between atoms: _229  and  _230
REMARK   94  A    between atoms: _229  and  _232
REMARK   95  A    between atoms: _232  and  _233
REMARK   96  A    between atoms: _233  and  _234
REMARK   97  A    between atoms: _234  and  _235
REMARK   98  A    between atoms: _244  and  _246
REMARK   99  A    between atoms: _246  and  _247
REMARK  100  A    between atoms: _246  and  _249
REMARK  101  A    between atoms: _249  and  _250
REMARK  102  A    between atoms: _250  and  _251
REMARK  103  A    between atoms: _254  and  _256
REMARK  104  A    between atoms: _256  and  _257
REMARK  105  A    between atoms: _256  and  _259
REMARK  106  A    between atoms: _259  and  _260
REMARK  107  A    between atoms: _263  and  _265
REMARK  108  A    between atoms: _265  and  _266
REMARK  109  A    between atoms: _265  and  _268
REMARK  110  A    between atoms: _268  and  _269
REMARK  111  A    between atoms: _272  and  _274
REMARK  112  A    between atoms: _274  and  _275
REMARK  113  A    between atoms: _274  and  _277
REMARK  114  A    between atoms: _277  and  _278
REMARK  115  A    between atoms: _281  and  _283
REMARK  116  A    between atoms: _283  and  _284
REMARK  117  A    between atoms: _283  and  _286
REMARK  118  A    between atoms: _286  and  _287
REMARK  119  A    between atoms: _287  and  _288
REMARK  120  A    between atoms: _293  and  _295
REMARK  121  A    between atoms: _295  and  _296
REMARK  122  A    between atoms: _298  and  _300
REMARK  123  A    between atoms: _300  and  _301
REMARK  124  A    between atoms: _300  and  _303
REMARK  125  A    between atoms: _303  and  _304
REMARK  126  A    between atoms: _307  and  _309
REMARK  127  A    between atoms: _309  and  _310
REMARK  128  A    between atoms: _309  and  _312
REMARK  129  A    between atoms: _312  and  _313
REMARK  130  A    between atoms: _318  and  _320
REMARK  131  A    between atoms: _320  and  _321
REMARK  132  A    between atoms: _320  and  _323
REMARK  133  A    between atoms: _323  and  _324
REMARK  134  A    between atoms: _327  and  _329
REMARK  135  A    between atoms: _329  and  _330
REMARK  136  A    between atoms: _329  and  _332
REMARK  137  A    between atoms: _332  and  _333
REMARK  138  A    between atoms: _335  and  _337
REMARK  139  A    between atoms: _337  and  _338
REMARK  140  A    between atoms: _337  and  _340
REMARK  141  A    between atoms: _340  and  _341
REMARK  142  A    between atoms: _341  and  _342
REMARK  143  A    between atoms: _347  and  _349
REMARK  144  A    between atoms: _349  and  _350
REMARK  145  A    between atoms: _349  and  _352
REMARK  146  A    between atoms: _352  and  _353
REMARK  147  A    between atoms: _356  and  _358
REMARK  148  A    between atoms: _358  and  _359
REMARK  149  A    between atoms: _358  and  _361
REMARK  150  A    between atoms: _364  and  _366
REMARK  151  A    between atoms: _366  and  _367
REMARK  152  A    between atoms: _366  and  _369
REMARK  153  A    between atoms: _369  and  _370
REMARK  154  A    between atoms: _370  and  _371
REMARK  155  A    between atoms: _371  and  _372
REMARK  156  A    between atoms: _381  and  _383
REMARK  157  A    between atoms: _383  and  _384
REMARK  158  A    between atoms: _383  and  _386
REMARK  159  A    between atoms: _386  and  _387
REMARK  160  A    between atoms: _390  and  _392
REMARK  161  A    between atoms: _392  and  _393
REMARK  162  A    between atoms: _392  and  _395
REMARK  163  A    between atoms: _395  and  _396
REMARK  164  A    between atoms: _406  and  _408
REMARK  165  A    between atoms: _408  and  _409
REMARK  166  A    between atoms: _408  and  _411
REMARK  167  A    between atoms: _411  and  _412
REMARK  168  A    between atoms: _416  and  _417
REMARK  169  A    between atoms: _422  and  _424
REMARK  170  A    between atoms: _424  and  _425
REMARK  171  A    between atoms: _424  and  _427
REMARK  172  A    between atoms: _427  and  _428
REMARK  173  A    between atoms: _434  and  _435
REMARK  174  A    between atoms: _440  and  _442
REMARK  175  A    between atoms: _442  and  _443
REMARK  176  A    between atoms: _445  and  _447
REMARK  177  A    between atoms: _447  and  _448
REMARK  178  A    between atoms: _447  and  _450
REMARK  179  A    between atoms: _450  and  _451
REMARK  180  A    between atoms: _454  and  _456
REMARK  181  A    between atoms: _456  and  _457
REMARK  182  A    between atoms: _456  and  _459
REMARK  183  A    between atoms: _459  and  _460
REMARK  184  A    between atoms: _460  and  _461
REMARK  185  A    between atoms: _461  and  _462
REMARK  186  A    between atoms: _462  and  _463
REMARK  187  A    between atoms: _467  and  _469
REMARK  188  A    between atoms: _469  and  _470
REMARK  189  A    between atoms: _469  and  _472
REMARK  190  A    between atoms: _475  and  _477
REMARK  191  A    between atoms: _477  and  _478
REMARK  192  A    between atoms: _481  and  _483
REMARK  193  A    between atoms: _483  and  _484
REMARK  194  A    between atoms: _483  and  _486
REMARK  195  A    between atoms: _486  and  _487
REMARK  196  A    between atoms: _490  and  _492
REMARK  197  A    between atoms: _492  and  _493
REMARK  198  A    between atoms: _492  and  _495
REMARK  199  A    between atoms: _495  and  _496
REMARK  200  A    between atoms: _502  and  _503
REMARK  201  A    between atoms: _508  and  _510
REMARK  202  A    between atoms: _510  and  _511
REMARK  203  A    between atoms: _510  and  _513
REMARK  204  A    between atoms: _513  and  _514
REMARK  205  A    between atoms: _520  and  _522
REMARK  206  A    between atoms: _522  and  _523
REMARK  207  A    between atoms: _522  and  _525
REMARK  208  A    between atoms: _525  and  _526
REMARK  209  A    between atoms: _529  and  _531
REMARK  210  A    between atoms: _531  and  _532
REMARK  211  A    between atoms: _534  and  _536
REMARK  212  A    between atoms: _536  and  _537
REMARK  213  A    between atoms: _536  and  _539
REMARK  214  A    between atoms: _539  and  _540
REMARK  215  A    between atoms: _543  and  _545
REMARK  216  A    between atoms: _545  and  _546
REMARK  217  A    between atoms: _545  and  _548
REMARK  218  A    between atoms: _548  and  _549
REMARK  219  A    between atoms: _555  and  _557
REMARK  220  A    between atoms: _557  and  _558
REMARK  221  A    between atoms: _557  and  _560
REMARK  222  A    between atoms: _560  and  _561
REMARK  223  A    between atoms: _561  and  _562
REMARK  224  A    between atoms: _567  and  _569
REMARK  225  A    between atoms: _569  and  _570
REMARK  226  A    between atoms: _569  and  _572
REMARK  227  A    between atoms: _572  and  _573
REMARK  228  A    between atoms: _576  and  _578
REMARK  229  A    between atoms: _578  and  _579
REMARK  230  A    between atoms: _578  and  _581
REMARK  231  A    between atoms: _581  and  _582
REMARK  232  A    between atoms: _584  and  _586
REMARK  233  A    between atoms: _586  and  _587
REMARK  234  A    between atoms: _586  and  _589
REMARK  235  A    between atoms: _589  and  _590
REMARK  236  A    between atoms: _596  and  _598
REMARK  237  A    between atoms: _598  and  _599
REMARK  238  A    between atoms: _598  and  _601
REMARK  239  A    between atoms: _601  and  _602
REMARK  240  A    between atoms: _607  and  _608
REMARK  241  A    between atoms: _610  and  _612
REMARK  242  A    between atoms: _612  and  _613
REMARK  243  A    between atoms: _612  and  _615
REMARK  244  A    between atoms: _615  and  _616
REMARK                            x       y       z     vdW  Elec       q    Type
REMARK                         _______ _______ _______ _____ _____    ______ ____
ROOT
ATOM      1  CA  ILE A   1     -12.270   3.795  34.783  0.00  0.00    +0.133 C 
ENDROOT
BRANCH   1   2
ATOM      2  N   ILE A   1     -12.537   4.796  33.768  0.00  0.00    -0.239 NA
ATOM      3  H   ILE A   1     -12.309   4.581  32.776  0.00  0.00    +0.142 HD
ENDBRANCH   1   2
BRANCH   1   4
ATOM      4  C   ILE A   1     -10.761   3.652  34.992  0.00  0.00    +0.224 C 
ATOM      5  O   ILE A   1      -9.986   3.678  34.023  0.00  0.00    -0.287 OA
ENDBRANCH   1   4
BRANCH   1   6
ATOM      6  CB  ILE A   1     -12.884   2.447  34.387  0.00  0.00    +0.023 C 
ATOM      7  CG2 ILE A   1     -12.627   1.394  35.449  0.00  0.00    +0.002 C 
BRANCH   6   8
ATOM      8  CG1 ILE A   1     -14.386   2.611  34.161  0.00  0.00    +0.002 C 
ATOM      9  CD1 ILE A   1     -15.058   1.356  33.649  0.00  0.00    +0.000 C 
ENDBRANCH   6   8
ENDBRANCH   1   6
TORSDOF 4
REMARK  Name = ../refined-set-2016/4ido/4ido_pocket.pdb
REMARK  244 active torsions:
REMARK  status: ('A' for Active; 'I' for Inactive)
REMARK    1  A    between atoms: _1  and  _3
REMARK    2  A    between atoms: _3  and  _4
REMARK    3  A    between atoms: _3  and  _6
REMARK    4  A    between atoms: _9  and  _11
REMARK    5  A    between atoms: _11  and  _12
REMARK    6  A    between atoms: _15  and  _17
REMARK    7  A    between atoms: _17  and  _18
REMARK    8  A    between atoms: _20  and  _22
REMARK    9  A    between atoms: _22  and  _23
REMARK   10  A    between atoms: _26  and  _28
REMARK   11  A    between atoms: _28  and  _29
REMARK   12  A    between atoms: _28  and  _31
REMARK   13  A    between atoms: _31  and  _32
REMARK   14  A    between atoms: _38  and  _40
REMARK   15  A    between atoms: _40  and  _41
REMARK   16  A    between atoms: _40  and  _43
REMARK   17  A    between atoms: _43  and  _44
REMARK   18  A    between atoms: _44  and  _45
REMARK   19  A    between atoms: _45  and  _46
REMARK   20  A    between atoms: _55  and  _57
REMARK   21  A    between atoms: _57  and  _58
REMARK   22  A    between atoms: _57  and  _60
REMARK   23  A    between atoms: _60  and  _61
REMARK   24  A    between atoms: _61  and  _62
REMARK   25  A    between atoms: _62  and  _63
REMARK   26  A    between atoms: _63  and  _64
REMARK   27  A    between atoms: _68  and  _70
REMARK   28  A    between atoms: _70  and  _71
REMARK   29  A    between atoms: _73  and  _75
REMARK   30  A    between atoms: _75  and  _76
REMARK   31  A    between atoms: _75  and  _78
REMARK   32  A    between atoms: _78  and  _79
REMARK   33  A    between atoms: _79  and  _80
REMARK   34  A    between atoms: _80  and  _81
REMARK   35  A    between atoms: _81  and  _82
REMARK   36  A    between atoms: _86  and  _88
REMARK   37  A    between atoms: _88  and  _89
REMARK   38  A    between atoms: _88  and  _91
REMARK   39  A    between atoms: _91  and  _92
REMARK   40  A    between atoms: _94  and  _96
REMARK   41  A    between atoms: _96  and  _97
REMARK   42  A    between atoms: _96  and  _99
REMARK   43  A    between atoms: _99  and  _100
REMARK   44  A    between atoms: _106  and  _108
REMARK   45  A    between atoms: _108  and  _109
REMARK   46  A    between atoms: _108  and  _111
REMARK   47  A    between atoms: _111  and  _112
REMARK   48  A    between atoms: _115  and  _117
REMARK   49  A    between atoms: _117  and  _118
REMARK   50  A    between atoms: _117  and  _120
REMARK   51  A    between atoms: _120  and  _121
REMARK   52  A    between atoms: _121  and  _122
REMARK   53  A    between atoms: _124  and  _126
REMARK   54  A    between atoms: _126  and  _127
REMARK   55  A    between atoms: _126  and  _129
REMARK   56  A    between atoms: _129  and  _130
REMARK   57  A    between atoms: _133  and  _135
REMARK   58  A    between atoms: _135  and  _136
REMARK   59  A    between atoms: _135  and  _138
REMARK   60  A    between atoms: _138  and  _139
REMARK   61  A    between atoms: _145  and  _147
REMARK   62  A    between atoms: _147  and  _148
REMARK   63  A    between atoms: _147  and  _150
REMARK   64  A    between atoms: _150  and  _151
REMARK   65  A    between atoms: _154  and  _156
REMARK   66  A    between atoms: _156  and  _157
REMARK   67  A    between atoms: _156  and  _159
REMARK   68  A    between atoms: _159  and  _160
REMARK   69  A    between atoms: _166  and  _168
REMARK   70  A    between atoms: _168  and  _169
REMARK   71  A    between atoms: _168  and  _171
REMARK   72  A    between atoms: _171  and  _172
REMARK   73  A    between atoms: _174  and  _176
REMARK   74  A    between atoms: _176  and  _177
REMARK   75  A    between atoms: _176  and  _179
REMARK   76  A    between atoms: _179  and  _180
REMARK   77  A    between atoms: _190  and  _192
REMARK   78  A    between atoms: _192  and  _193
REMARK   79  A    between atoms: _192  and  _195
REMARK   80  A    between atoms: _195  and  _196
REMARK   81  A    between atoms: _196  and  _197
REMARK   82  A    between atoms: _197  and  _198
REMARK   83  A    between atoms: _207  and  _209
REMARK   84  A    between atoms: _209  and  _210
REMARK   85  A    between atoms: _212  and  _214
REMARK   86  A    between atoms: _214  and  _215
REMARK   87  A    between atoms: _217  and  _219
REMARK   88  A    between atoms: _219  and  _220
REMARK   89  A    between atoms: _219  and  _222
REMARK   90  A    between atoms: _222  and  _223
REMARK   91  A    between atoms: _223  and  _224
REMARK   92  A    between atoms: _227  and  _229
REMARK   93  A    between atoms: _229  and  _230
REMARK   94  A    between atoms: _229  and  _232
REMARK   95  A    between atoms: _232  and  _233
REMARK   96  A    between atoms: _233  and  _234
REMARK   97  A    between atoms: _234  and  _235
REMARK   98  A    between atoms: _244  and  _246
REMARK   99  A    between atoms: _246  and  _247
REMARK  100  A    between atoms: _246  and  _249
REMARK  101  A    between atoms: _249  and  _250
REMARK  102  A    between atoms: _250  and  _251
REMARK  103  A    between atoms: _254  and  _256
REMARK  104  A    between atoms: _256  and  _257
REMARK  105  A    between atoms: _256  and  _259
REMARK  106  A    between atoms: _259  and  _260
REMARK  107  A    between atoms: _263  and  _265
REMARK  108  A    between atoms: _265  and  _266
REMARK  109  A    between atoms: _265  and  _268
REMARK  110  A    between atoms: _268  and  _269
REMARK  111  A    between atoms: _272  and  _274
REMARK  112  A    between atoms: _274  and  _275
REMARK  113  A    between atoms: _274  and  _277
REMARK  114  A    between atoms: _277  and  _278
REMARK  115  A    between atoms: _281  and  _283
REMARK  116  A    between atoms: _283  and  _284
REMARK  117  A    between atoms: _283  and  _286
REMARK  118  A    between atoms: _286  and  _287
REMARK  119  A    between atoms: _287  and  _288
REMARK  120  A    between atoms: _293  and  _295
REMARK  121  A    between atoms: _295  and  _296
REMARK  122  A    between atoms: _298  and  _300
REMARK  123  A    between atoms: _300  and  _301
REMARK  124  A    between atoms: _300  and  _303
REMARK  125  A    between atoms: _303  and  _304
REMARK  126  A    between atoms: _307  and  _309
REMARK  127  A    between atoms: _309  and  _310
REMARK  128  A    between atoms: _309  and  _312
REMARK  129  A    between atoms: _312  and  _313
REMARK  130  A    between atoms: _318  and  _320
REMARK  131  A    between atoms: _320  and  _321
REMARK  132  A    between atoms: _320  and  _323
REMARK  133  A    between atoms: _323  and  _324
REMARK  134  A    between atoms: _327  and  _329
REMARK  135  A    between atoms: _329  and  _330
REMARK  136  A    between atoms: _329  and  _332
REMARK  137  A    between atoms: _332  and  _333
REMARK  138  A    between atoms: _335  and  _337
REMARK  139  A    between atoms: _337  and  _338
REMARK  140  A    between atoms: _337  and  _340
REMARK  141  A    between atoms: _340  and  _341
REMARK  142  A    between atoms: _341  and  _342
REMARK  143  A    between atoms: _347  and  _349
REMARK  144  A    between atoms: _349  and  _350
REMARK  145  A    between atoms: _349  and  _352
REMARK  146  A    between atoms: _352  and  _353
REMARK  147  A    between atoms: _356  and  _358
REMARK  148  A    between atoms: _358  and  _359
REMARK  149  A    between atoms: _358  and  _361
REMARK  150  A    between atoms: _364  and  _366
REMARK  151  A    between atoms: _366  and  _367
REMARK  152  A    between atoms: _366  and  _369
REMARK  153  A    between atoms: _369  and  _370
REMARK  154  A    between atoms: _370  and  _371
REMARK  155  A    between atoms: _371  and  _372
REMARK  156  A    between atoms: _381  and  _383
REMARK  157  A    between atoms: _383  and  _384
REMARK  158  A    between atoms: _383  and  _386
REMARK  159  A    between atoms: _386  and  _387
REMARK  160  A    between atoms: _390  and  _392
REMARK  161  A    between atoms: _392  and  _393
REMARK  162  A    between atoms: _392  and  _395
REMARK  163  A    between atoms: _395  and  _396
REMARK  164  A    between atoms: _406  and  _408
REMARK  165  A    between atoms: _408  and  _409
REMARK  166  A    between atoms: _408  and  _411
REMARK  167  A    between atoms: _411  and  _412
REMARK  168  A    between atoms: _416  and  _417
REMARK  169  A    between atoms: _422  and  _424
REMARK  170  A    between atoms: _424  and  _425
REMARK  171  A    between atoms: _424  and  _427
REMARK  172  A    between atoms: _427  and  _428
REMARK  173  A    between atoms: _434  and  _435
REMARK  174  A    between atoms: _440  and  _442
REMARK  175  A    between atoms: _442  and  _443
REMARK  176  A    between atoms: _445  and  _447
REMARK  177  A    between atoms: _447  and  _448
REMARK  178  A    between atoms: _447  and  _450
REMARK  179  A    between atoms: _450  and  _451
REMARK  180  A    between atoms: _454  and  _456
REMARK  181  A    between atoms: _456  and  _457
REMARK  182  A    between atoms: _456  and  _459
REMARK  183  A    between atoms: _459  and  _460
REMARK  184  A    between atoms: _460  and  _461
REMARK  185  A    between atoms: _461  and  _462
REMARK  186  A    between atoms: _462  and  _463
REMARK  187  A    between atoms: _467  and  _469
REMARK  188  A    between atoms: _469  and  _470
REMARK  189  A    between atoms: _469  and  _472
REMARK  190  A    between atoms: _475  and  _477
REMARK  191  A    between atoms: _477  and  _478
REMARK  192  A    between atoms: _481  and  _483
REMARK  193  A    between atoms: _483  and  _484
REMARK  194  A    between atoms: _483  and  _486
REMARK  195  A    between atoms: _486  and  _487
REMARK  196  A    between atoms: _490  and  _492
REMARK  197  A    between atoms: _492  and  _493
REMARK  198  A    between atoms: _492  and  _495
REMARK  199  A    between atoms: _495  and  _496
REMARK  200  A    between atoms: _502  and  _503
REMARK  201  A    between atoms: _508  and  _510
REMARK  202  A    between atoms: _510  and  _511
REMARK  203  A    between atoms: _510  and  _513
REMARK  204  A    between atoms: _513  and  _514
REMARK  205  A    between atoms: _520  and  _522
REMARK  206  A    between atoms: _522  and  _523
REMARK  207  A    between atoms: _522  and  _525
REMARK  208  A    between atoms: _525  and  _526
REMARK  209  A    between atoms: _529  and  _531
REMARK  210  A    between atoms: _531  and  _532
REMARK  211  A    between atoms: _534  and  _536
REMARK  212  A    between atoms: _536  and  _537
REMARK  213  A    between atoms: _536  and  _539
REMARK  214  A    between atoms: _539  and  _540
REMARK  215  A    between atoms: _543  and  _545
REMARK  216  A    between atoms: _545  and  _546
REMARK  217  A    between atoms: _545  and  _548
REMARK  218  A    between atoms: _548  and  _549
REMARK  219  A    between atoms: _555  and  _557
REMARK  220  A    between atoms: _557  and  _558
REMARK  221  A    between atoms: _557  and  _560
REMARK  222  A    between atoms: _560  and  _561
REMARK  223  A    between atoms: _561  and  _562
REMARK  224  A    between atoms: _567  and  _569
REMARK  225  A    between atoms: _569  and  _570
REMARK  226  A    between atoms: _569  and  _572
REMARK  227  A    between atoms: _572  and  _573
REMARK  228  A    between atoms: _576  and  _578
REMARK  229  A    between atoms: _578  and  _579
REMARK  230  A    between atoms: _578  and  _581
REMARK  231  A    between atoms: _581  and  _582
REMARK  232  A    between atoms: _584  and  _586
REMARK  233  A    between atoms: _586  and  _587
REMARK  234  A    between atoms: _586  and  _589
REMARK  235  A    between atoms: _589  and  _590
REMARK  236  A    between atoms: _596  and  _598
REMARK  237  A    between atoms: _598  and  _599
REMARK  238  A    between atoms: _598  and  _601
REMARK  239  A    between atoms: _601  and  _602
REMARK  240  A    between atoms: _607  and  _608
REMARK  241  A    between atoms: _610  and  _612
REMARK  242  A    between atoms: _612  and  _613
REMARK  243  A    between atoms: _612  and  _615
REMARK  244  A    between atoms: _615  and  _616
REMARK                            x       y       z     vdW  Elec       q    Type
REMARK                         _______ _______ _______ _____ _____    ______ ____
ROOT
ATOM      1  CB  PHE A   1     -10.135  -0.854  37.951  0.00  0.00    +0.051 C 
ENDROOT
BRANCH   1   2
ATOM      2  CG  PHE A   1     -11.466  -1.552  37.958  0.00  0.00    -0.020 A 
ATOM      3  CD2 PHE A   1     -12.015  -2.016  39.148  0.00  0.00    -0.004 A 
ATOM      4  CE2 PHE A   1     -13.276  -2.667  39.159  0.00  0.00    -0.000 A 
ATOM      5  CZ  PHE A   1     -13.972  -2.846  37.970  0.00  0.00    -0.000 A 
ATOM      6  CE1 PHE A   1     -13.425  -2.390  36.770  0.00  0.00    -0.000 A 
ATOM      7  CD1 PHE A   1     -12.176  -1.750  36.769  0.00  0.00    -0.004 A 
ENDBRANCH   1   2
BRANCH   1   8
ATOM      8  CA  PHE A   1      -8.948  -1.788  37.714  0.00  0.00    +0.137 C 
BRANCH   8   9
ATOM      9  N   PHE A   1      -7.704  -1.027  37.630  0.00  0.00    -0.239 NA
ATOM     10  H   PHE A   1      -7.727   0.010  37.700  0.00  0.00    +0.142 HD
ENDBRANCH   8   9
BRANCH   8  11
ATOM     11  C   PHE A   1      -9.158  -2.567  36.417  0.00  0.00    +0.224 C 
ATOM     12  O   PHE A   1      -9.465  -3.768  36.436  0.00  0.00    -0.287 OA
ENDBRANCH   8  11
ENDBRANCH   1   8
TORSDOF 4
REMARK  Name = ../refined-set-2016/4ido/4ido_pocket.pdb
REMARK  244 active torsions:
REMARK  status: ('A' for Active; 'I' for Inactive)
REMARK    1  A    between atoms: _1  and  _3
REMARK    2  A    between atoms: _3  and  _4
REMARK    3  A    between atoms: _3  and  _6
REMARK    4  A    between atoms: _9  and  _11
REMARK    5  A    between atoms: _11  and  _12
REMARK    6  A    between atoms: _15  and  _17
REMARK    7  A    between atoms: _17  and  _18
REMARK    8  A    between atoms: _20  and  _22
REMARK    9  A    between atoms: _22  and  _23
REMARK   10  A    between atoms: _26  and  _28
REMARK   11  A    between atoms: _28  and  _29
REMARK   12  A    between atoms: _28  and  _31
REMARK   13  A    between atoms: _31  and  _32
REMARK   14  A    between atoms: _38  and  _40
REMARK   15  A    between atoms: _40  and  _41
REMARK   16  A    between atoms: _40  and  _43
REMARK   17  A    between atoms: _43  and  _44
REMARK   18  A    between atoms: _44  and  _45
REMARK   19  A    between atoms: _45  and  _46
REMARK   20  A    between atoms: _55  and  _57
REMARK   21  A    between atoms: _57  and  _58
REMARK   22  A    between atoms: _57  and  _60
REMARK   23  A    between atoms: _60  and  _61
REMARK   24  A    between atoms: _61  and  _62
REMARK   25  A    between atoms: _62  and  _63
REMARK   26  A    between atoms: _63  and  _64
REMARK   27  A    between atoms: _68  and  _70
REMARK   28  A    between atoms: _70  and  _71
REMARK   29  A    between atoms: _73  and  _75
REMARK   30  A    between atoms: _75  and  _76
REMARK   31  A    between atoms: _75  and  _78
REMARK   32  A    between atoms: _78  and  _79
REMARK   33  A    between atoms: _79  and  _80
REMARK   34  A    between atoms: _80  and  _81
REMARK   35  A    between atoms: _81  and  _82
REMARK   36  A    between atoms: _86  and  _88
REMARK   37  A    between atoms: _88  and  _89
REMARK   38  A    between atoms: _88  and  _91
REMARK   39  A    between atoms: _91  and  _92
REMARK   40  A    between atoms: _94  and  _96
REMARK   41  A    between atoms: _96  and  _97
REMARK   42  A    between atoms: _96  and  _99
REMARK   43  A    between atoms: _99  and  _100
REMARK   44  A    between atoms: _106  and  _108
REMARK   45  A    between atoms: _108  and  _109
REMARK   46  A    between atoms: _108  and  _111
REMARK   47  A    between atoms: _111  and  _112
REMARK   48  A    between atoms: _115  and  _117
REMARK   49  A    between atoms: _117  and  _118
REMARK   50  A    between atoms: _117  and  _120
REMARK   51  A    between atoms: _120  and  _121
REMARK   52  A    between atoms: _121  and  _122
REMARK   53  A    between atoms: _124  and  _126
REMARK   54  A    between atoms: _126  and  _127
REMARK   55  A    between atoms: _126  and  _129
REMARK   56  A    between atoms: _129  and  _130
REMARK   57  A    between atoms: _133  and  _135
REMARK   58  A    between atoms: _135  and  _136
REMARK   59  A    between atoms: _135  and  _138
REMARK   60  A    between atoms: _138  and  _139
REMARK   61  A    between atoms: _145  and  _147
REMARK   62  A    between atoms: _147  and  _148
REMARK   63  A    between atoms: _147  and  _150
REMARK   64  A    between atoms: _150  and  _151
REMARK   65  A    between atoms: _154  and  _156
REMARK   66  A    between atoms: _156  and  _157
REMARK   67  A    between atoms: _156  and  _159
REMARK   68  A    between atoms: _159  and  _160
REMARK   69  A    between atoms: _166  and  _168
REMARK   70  A    between atoms: _168  and  _169
REMARK   71  A    between atoms: _168  and  _171
REMARK   72  A    between atoms: _171  and  _172
REMARK   73  A    between atoms: _174  and  _176
REMARK   74  A    between atoms: _176  and  _177
REMARK   75  A    between atoms: _176  and  _179
REMARK   76  A    between atoms: _179  and  _180
REMARK   77  A    between atoms: _190  and  _192
REMARK   78  A    between atoms: _192  and  _193
REMARK   79  A    between atoms: _192  and  _195
REMARK   80  A    between atoms: _195  and  _196
REMARK   81  A    between atoms: _196  and  _197
REMARK   82  A    between atoms: _197  and  _198
REMARK   83  A    between atoms: _207  and  _209
REMARK   84  A    between atoms: _209  and  _210
REMARK   85  A    between atoms: _212  and  _214
REMARK   86  A    between atoms: _214  and  _215
REMARK   87  A    between atoms: _217  and  _219
REMARK   88  A    between atoms: _219  and  _220
REMARK   89  A    between atoms: _219  and  _222
REMARK   90  A    between atoms: _222  and  _223
REMARK   91  A    between atoms: _223  and  _224
REMARK   92  A    between atoms: _227  and  _229
REMARK   93  A    between atoms: _229  and  _230
REMARK   94  A    between atoms: _229  and  _232
REMARK   95  A    between atoms: _232  and  _233
REMARK   96  A    between atoms: _233  and  _234
REMARK   97  A    between atoms: _234  and  _235
REMARK   98  A    between atoms: _244  and  _246
REMARK   99  A    between atoms: _246  and  _247
REMARK  100  A    between atoms: _246  and  _249
REMARK  101  A    between atoms: _249  and  _250
REMARK  102  A    between atoms: _250  and  _251
REMARK  103  A    between atoms: _254  and  _256
REMARK  104  A    between atoms: _256  and  _257
REMARK  105  A    between atoms: _256  and  _259
REMARK  106  A    between atoms: _259  and  _260
REMARK  107  A    between atoms: _263  and  _265
REMARK  108  A    between atoms: _265  and  _266
REMARK  109  A    between atoms: _265  and  _268
REMARK  110  A    between atoms: _268  and  _269
REMARK  111  A    between atoms: _272  and  _274
REMARK  112  A    between atoms: _274  and  _275
REMARK  113  A    between atoms: _274  and  _277
REMARK  114  A    between atoms: _277  and  _278
REMARK  115  A    between atoms: _281  and  _283
REMARK  116  A    between atoms: _283  and  _284
REMARK  117  A    between atoms: _283  and  _286
REMARK  118  A    between atoms: _286  and  _287
REMARK  119  A    between atoms: _287  and  _288
REMARK  120  A    between atoms: _293  and  _295
REMARK  121  A    between atoms: _295  and  _296
REMARK  122  A    between atoms: _298  and  _300
REMARK  123  A    between atoms: _300  and  _301
REMARK  124  A    between atoms: _300  and  _303
REMARK  125  A    between atoms: _303  and  _304
REMARK  126  A    between atoms: _307  and  _309
REMARK  127  A    between atoms: _309  and  _310
REMARK  128  A    between atoms: _309  and  _312
REMARK  129  A    between atoms: _312  and  _313
REMARK  130  A    between atoms: _318  and  _320
REMARK  131  A    between atoms: _320  and  _321
REMARK  132  A    between atoms: _320  and  _323
REMARK  133  A    between atoms: _323  and  _324
REMARK  134  A    between atoms: _327  and  _329
REMARK  135  A    between atoms: _329  and  _330
REMARK  136  A    between atoms: _329  and  _332
REMARK  137  A    between atoms: _332  and  _333
REMARK  138  A    between atoms: _335  and  _337
REMARK  139  A    between atoms: _337  and  _338
REMARK  140  A    between atoms: _337  and  _340
REMARK  141  A    between atoms: _340  and  _341
REMARK  142  A    between atoms: _341  and  _342
REMARK  143  A    between atoms: _347  and  _349
REMARK  144  A    between atoms: _349  and  _350
REMARK  145  A    between atoms: _349  and  _352
REMARK  146  A    between atoms: _352  and  _353
REMARK  147  A    between atoms: _356  and  _358
REMARK  148  A    between atoms: _358  and  _359
REMARK  149  A    between atoms: _358  and  _361
REMARK  150  A    between atoms: _364  and  _366
REMARK  151  A    between atoms: _366  and  _367
REMARK  152  A    between atoms: _366  and  _369
REMARK  153  A    between atoms: _369  and  _370
REMARK  154  A    between atoms: _370  and  _371
REMARK  155  A    between atoms: _371  and  _372
REMARK  156  A    between atoms: _381  and  _383
REMARK  157  A    between atoms: _383  and  _384
REMARK  158  A    between atoms: _383  and  _386
REMARK  159  A    between atoms: _386  and  _387
REMARK  160  A    between atoms: _390  and  _392
REMARK  161  A    between atoms: _392  and  _393
REMARK  162  A    between atoms: _392  and  _395
REMARK  163  A    between atoms: _395  and  _396
REMARK  164  A    between atoms: _406  and  _408
REMARK  165  A    between atoms: _408  and  _409
REMARK  166  A    between atoms: _408  and  _411
REMARK  167  A    between atoms: _411  and  _412
REMARK  168  A    between atoms: _416  and  _417
REMARK  169  A    between atoms: _422  and  _424
REMARK  170  A    between atoms: _424  and  _425
REMARK  171  A    between atoms: _424  and  _427
REMARK  172  A    between atoms: _427  and  _428
REMARK  173  A    between atoms: _434  and  _435
REMARK  174  A    between atoms: _440  and  _442
REMARK  175  A    between atoms: _442  and  _443
REMARK  176  A    between atoms: _445  and  _447
REMARK  177  A    between atoms: _447  and  _448
REMARK  178  A    between atoms: _447  and  _450
REMARK  179  A    between atoms: _450  and  _451
REMARK  180  A    between atoms: _454  and  _456
REMARK  181  A    between atoms: _456  and  _457
REMARK  182  A    between atoms: _456  and  _459
REMARK  183  A    between atoms: _459  and  _460
REMARK  184  A    between atoms: _460  and  _461
REMARK  185  A    between atoms: _461  and  _462
REMARK  186  A    between atoms: _462  and  _463
REMARK  187  A    between atoms: _467  and  _469
REMARK  188  A    between atoms: _469  and  _470
REMARK  189  A    between atoms: _469  and  _472
REMARK  190  A    between atoms: _475  and  _477
REMARK  191  A    between atoms: _477  and  _478
REMARK  192  A    between atoms: _481  and  _483
REMARK  193  A    between atoms: _483  and  _484
REMARK  194  A    between atoms: _483  and  _486
REMARK  195  A    between atoms: _486  and  _487
REMARK  196  A    between atoms: _490  and  _492
REMARK  197  A    between atoms: _492  and  _493
REMARK  198  A    between atoms: _492  and  _495
REMARK  199  A    between atoms: _495  and  _496
REMARK  200  A    between atoms: _502  and  _503
REMARK  201  A    between atoms: _508  and  _510
REMARK  202  A    between atoms: _510  and  _511
REMARK  203  A    between atoms: _510  and  _513
REMARK  204  A    between atoms: _513  and  _514
REMARK  205  A    between atoms: _520  and  _522
REMARK  206  A    between atoms: _522  and  _523
REMARK  207  A    between atoms: _522  and  _525
REMARK  208  A    between atoms: _525  and  _526
REMARK  209  A    between atoms: _529  and  _531
REMARK  210  A    between atoms: _531  and  _532
REMARK  211  A    between atoms: _534  and  _536
REMARK  212  A    between atoms: _536  and  _537
REMARK  213  A    between atoms: _536  and  _539
REMARK  214  A    between atoms: _539  and  _540
REMARK  215  A    between atoms: _543  and  _545
REMARK  216  A    between atoms: _545  and  _546
REMARK  217  A    between atoms: _545  and  _548
REMARK  218  A    between atoms: _548  and  _549
REMARK  219  A    between atoms: _555  and  _557
REMARK  220  A    between atoms: _557  and  _558
REMARK  221  A    between atoms: _557  and  _560
REMARK  222  A    between atoms: _560  and  _561
REMARK  223  A    between atoms: _561  and  _562
REMARK  224  A    between atoms: _567  and  _569
REMARK  225  A    between atoms: _569  and  _570
REMARK  226  A    between atoms: _569  and  _572
REMARK  227  A    between atoms: _572  and  _573
REMARK  228  A    between atoms: _576  and  _578
REMARK  229  A    between atoms: _578  and  _579
REMARK  230  A    between atoms: _578  and  _581
REMARK  231  A    between atoms: _581  and  _582
REMARK  232  A    between atoms: _584  and  _586
REMARK  233  A    between atoms: _586  and  _587
REMARK  234  A    between atoms: _586  and  _589
REMARK  235  A    between atoms: _589  and  _590
REMARK  236  A    between atoms: _596  and  _598
REMARK  237  A    between atoms: _598  and  _599
REMARK  238  A    between atoms: _598  and  _601
REMARK  239  A    between atoms: _601  and  _602
REMARK  240  A    between atoms: _607  and  _608
REMARK  241  A    between atoms: _610  and  _612
REMARK  242  A    between atoms: _612  and  _613
REMARK  243  A    between atoms: _612  and  _615
REMARK  244  A    between atoms: _615  and  _616
REMARK                            x       y       z     vdW  Elec       q    Type
REMARK                         _______ _______ _______ _____ _____    ______ ____
ROOT
ATOM      1  CB  GLN A   1     -20.526   2.397  51.154  0.00  0.00    +0.035 C 
ENDROOT
BRANCH   1   2
ATOM      2  CA  GLN A   1     -20.795   3.515  52.176  0.00  0.00    +0.134 C 
BRANCH   2   3
ATOM      3  N   GLN A   1     -20.061   3.297  53.443  0.00  0.00    -0.239 NA
ATOM      4  H   GLN A   1     -19.476   4.081  53.796  0.00  0.00    +0.142 HD
ENDBRANCH   2   3
BRANCH   2   5
ATOM      5  C   GLN A   1     -22.311   3.744  52.290  0.00  0.00    +0.224 C 
ATOM      6  O   GLN A   1     -22.898   4.551  51.558  0.00  0.00    -0.287 OA
ENDBRANCH   2   5
ENDBRANCH   1   2
BRANCH   1   7
ATOM      7  CG  GLN A   1     -19.105   2.304  50.645  0.00  0.00    +0.087 C 
BRANCH   7   8
ATOM      8  CD  GLN A   1     -18.935   1.226  49.562  0.00  0.00    +0.219 C 
ATOM      9  OE1 GLN A   1     -19.881   0.532  49.203  0.00  0.00    -0.275 OA
ATOM     10  NE2 GLN A   1     -17.728   1.104  49.033  0.00  0.00    -0.329 N 
ATOM     11 HE21 GLN A   1     -16.951   1.711  49.364  0.00  0.00    +0.145 HD
ATOM     12 HE22 GLN A   1     -17.556   0.401  48.286  0.00  0.00    +0.145 HD
ENDBRANCH   7   8
ENDBRANCH   1   7
TORSDOF 5
REMARK  Name = ../refined-set-2016/4ido/4ido_pocket.pdb
REMARK  244 active torsions:
REMARK  status: ('A' for Active; 'I' for Inactive)
REMARK    1  A    between atoms: _1  and  _3
REMARK    2  A    between atoms: _3  and  _4
REMARK    3  A    between atoms: _3  and  _6
REMARK    4  A    between atoms: _9  and  _11
REMARK    5  A    between atoms: _11  and  _12
REMARK    6  A    between atoms: _15  and  _17
REMARK    7  A    between atoms: _17  and  _18
REMARK    8  A    between atoms: _20  and  _22
REMARK    9  A    between atoms: _22  and  _23
REMARK   10  A    between atoms: _26  and  _28
REMARK   11  A    between atoms: _28  and  _29
REMARK   12  A    between atoms: _28  and  _31
REMARK   13  A    between atoms: _31  and  _32
REMARK   14  A    between atoms: _38  and  _40
REMARK   15  A    between atoms: _40  and  _41
REMARK   16  A    between atoms: _40  and  _43
REMARK   17  A    between atoms: _43  and  _44
REMARK   18  A    between atoms: _44  and  _45
REMARK   19  A    between atoms: _45  and  _46
REMARK   20  A    between atoms: _55  and  _57
REMARK   21  A    between atoms: _57  and  _58
REMARK   22  A    between atoms: _57  and  _60
REMARK   23  A    between atoms: _60  and  _61
REMARK   24  A    between atoms: _61  and  _62
REMARK   25  A    between atoms: _62  and  _63
REMARK   26  A    between atoms: _63  and  _64
REMARK   27  A    between atoms: _68  and  _70
REMARK   28  A    between atoms: _70  and  _71
REMARK   29  A    between atoms: _73  and  _75
REMARK   30  A    between atoms: _75  and  _76
REMARK   31  A    between atoms: _75  and  _78
REMARK   32  A    between atoms: _78  and  _79
REMARK   33  A    between atoms: _79  and  _80
REMARK   34  A    between atoms: _80  and  _81
REMARK   35  A    between atoms: _81  and  _82
REMARK   36  A    between atoms: _86  and  _88
REMARK   37  A    between atoms: _88  and  _89
REMARK   38  A    between atoms: _88  and  _91
REMARK   39  A    between atoms: _91  and  _92
REMARK   40  A    between atoms: _94  and  _96
REMARK   41  A    between atoms: _96  and  _97
REMARK   42  A    between atoms: _96  and  _99
REMARK   43  A    between atoms: _99  and  _100
REMARK   44  A    between atoms: _106  and  _108
REMARK   45  A    between atoms: _108  and  _109
REMARK   46  A    between atoms: _108  and  _111
REMARK   47  A    between atoms: _111  and  _112
REMARK   48  A    between atoms: _115  and  _117
REMARK   49  A    between atoms: _117  and  _118
REMARK   50  A    between atoms: _117  and  _120
REMARK   51  A    between atoms: _120  and  _121
REMARK   52  A    between atoms: _121  and  _122
REMARK   53  A    between atoms: _124  and  _126
REMARK   54  A    between atoms: _126  and  _127
REMARK   55  A    between atoms: _126  and  _129
REMARK   56  A    between atoms: _129  and  _130
REMARK   57  A    between atoms: _133  and  _135
REMARK   58  A    between atoms: _135  and  _136
REMARK   59  A    between atoms: _135  and  _138
REMARK   60  A    between atoms: _138  and  _139
REMARK   61  A    between atoms: _145  and  _147
REMARK   62  A    between atoms: _147  and  _148
REMARK   63  A    between atoms: _147  and  _150
REMARK   64  A    between atoms: _150  and  _151
REMARK   65  A    between atoms: _154  and  _156
REMARK   66  A    between atoms: _156  and  _157
REMARK   67  A    between atoms: _156  and  _159
REMARK   68  A    between atoms: _159  and  _160
REMARK   69  A    between atoms: _166  and  _168
REMARK   70  A    between atoms: _168  and  _169
REMARK   71  A    between atoms: _168  and  _171
REMARK   72  A    between atoms: _171  and  _172
REMARK   73  A    between atoms: _174  and  _176
REMARK   74  A    between atoms: _176  and  _177
REMARK   75  A    between atoms: _176  and  _179
REMARK   76  A    between atoms: _179  and  _180
REMARK   77  A    between atoms: _190  and  _192
REMARK   78  A    between atoms: _192  and  _193
REMARK   79  A    between atoms: _192  and  _195
REMARK   80  A    between atoms: _195  and  _196
REMARK   81  A    between atoms: _196  and  _197
REMARK   82  A    between atoms: _197  and  _198
REMARK   83  A    between atoms: _207  and  _209
REMARK   84  A    between atoms: _209  and  _210
REMARK   85  A    between atoms: _212  and  _214
REMARK   86  A    between atoms: _214  and  _215
REMARK   87  A    between atoms: _217  and  _219
REMARK   88  A    between atoms: _219  and  _220
REMARK   89  A    between atoms: _219  and  _222
REMARK   90  A    between atoms: _222  and  _223
REMARK   91  A    between atoms: _223  and  _224
REMARK   92  A    between atoms: _227  and  _229
REMARK   93  A    between atoms: _229  and  _230
REMARK   94  A    between atoms: _229  and  _232
REMARK   95  A    between atoms: _232  and  _233
REMARK   96  A    between atoms: _233  and  _234
REMARK   97  A    between atoms: _234  and  _235
REMARK   98  A    between atoms: _244  and  _246
REMARK   99  A    between atoms: _246  and  _247
REMARK  100  A    between atoms: _246  and  _249
REMARK  101  A    between atoms: _249  and  _250
REMARK  102  A    between atoms: _250  and  _251
REMARK  103  A    between atoms: _254  and  _256
REMARK  104  A    between atoms: _256  and  _257
REMARK  105  A    between atoms: _256  and  _259
REMARK  106  A    between atoms: _259  and  _260
REMARK  107  A    between atoms: _263  and  _265
REMARK  108  A    between atoms: _265  and  _266
REMARK  109  A    between atoms: _265  and  _268
REMARK  110  A    between atoms: _268  and  _269
REMARK  111  A    between atoms: _272  and  _274
REMARK  112  A    between atoms: _274  and  _275
REMARK  113  A    between atoms: _274  and  _277
REMARK  114  A    between atoms: _277  and  _278
REMARK  115  A    between atoms: _281  and  _283
REMARK  116  A    between atoms: _283  and  _284
REMARK  117  A    between atoms: _283  and  _286
REMARK  118  A    between atoms: _286  and  _287
REMARK  119  A    between atoms: _287  and  _288
REMARK  120  A    between atoms: _293  and  _295
REMARK  121  A    between atoms: _295  and  _296
REMARK  122  A    between atoms: _298  and  _300
REMARK  123  A    between atoms: _300  and  _301
REMARK  124  A    between atoms: _300  and  _303
REMARK  125  A    between atoms: _303  and  _304
REMARK  126  A    between atoms: _307  and  _309
REMARK  127  A    between atoms: _309  and  _310
REMARK  128  A    between atoms: _309  and  _312
REMARK  129  A    between atoms: _312  and  _313
REMARK  130  A    between atoms: _318  and  _320
REMARK  131  A    between atoms: _320  and  _321
REMARK  132  A    between atoms: _320  and  _323
REMARK  133  A    between atoms: _323  and  _324
REMARK  134  A    between atoms: _327  and  _329
REMARK  135  A    between atoms: _329  and  _330
REMARK  136  A    between atoms: _329  and  _332
REMARK  137  A    between atoms: _332  and  _333
REMARK  138  A    between atoms: _335  and  _337
REMARK  139  A    between atoms: _337  and  _338
REMARK  140  A    between atoms: _337  and  _340
REMARK  141  A    between atoms: _340  and  _341
REMARK  142  A    between atoms: _341  and  _342
REMARK  143  A    between atoms: _347  and  _349
REMARK  144  A    between atoms: _349  and  _350
REMARK  145  A    between atoms: _349  and  _352
REMARK  146  A    between atoms: _352  and  _353
REMARK  147  A    between atoms: _356  and  _358
REMARK  148  A    between atoms: _358  and  _359
REMARK  149  A    between atoms: _358  and  _361
REMARK  150  A    between atoms: _364  and  _366
REMARK  151  A    between atoms: _366  and  _367
REMARK  152  A    between atoms: _366  and  _369
REMARK  153  A    between atoms: _369  and  _370
REMARK  154  A    between atoms: _370  and  _371
REMARK  155  A    between atoms: _371  and  _372
REMARK  156  A    between atoms: _381  and  _383
REMARK  157  A    between atoms: _383  and  _384
REMARK  158  A    between atoms: _383  and  _386
REMARK  159  A    between atoms: _386  and  _387
REMARK  160  A    between atoms: _390  and  _392
REMARK  161  A    between atoms: _392  and  _393
REMARK  162  A    between atoms: _392  and  _395
REMARK  163  A    between atoms: _395  and  _396
REMARK  164  A    between atoms: _406  and  _408
REMARK  165  A    between atoms: _408  and  _409
REMARK  166  A    between atoms: _408  and  _411
REMARK  167  A    between atoms: _411  and  _412
REMARK  168  A    between atoms: _416  and  _417
REMARK  169  A    between atoms: _422  and  _424
REMARK  170  A    between atoms: _424  and  _425
REMARK  171  A    between atoms: _424  and  _427
REMARK  172  A    between atoms: _427  and  _428
REMARK  173  A    between atoms: _434  and  _435
REMARK  174  A    between atoms: _440  and  _442
REMARK  175  A    between atoms: _442  and  _443
REMARK  176  A    between atoms: _445  and  _447
REMARK  177  A    between atoms: _447  and  _448
REMARK  178  A    between atoms: _447  and  _450
REMARK  179  A    between atoms: _450  and  _451
REMARK  180  A    between atoms: _454  and  _456
REMARK  181  A    between atoms: _456  and  _457
REMARK  182  A    between atoms: _456  and  _459
REMARK  183  A    between atoms: _459  and  _460
REMARK  184  A    between atoms: _460  and  _461
REMARK  185  A    between atoms: _461  and  _462
REMARK  186  A    between atoms: _462  and  _463
REMARK  187  A    between atoms: _467  and  _469
REMARK  188  A    between atoms: _469  and  _470
REMARK  189  A    between atoms: _469  and  _472
REMARK  190  A    between atoms: _475  and  _477
REMARK  191  A    between atoms: _477  and  _478
REMARK  192  A    between atoms: _481  and  _483
REMARK  193  A    between atoms: _483  and  _484
REMARK  194  A    between atoms: _483  and  _486
REMARK  195  A    between atoms: _486  and  _487
REMARK  196  A    between atoms: _490  and  _492
REMARK  197  A    between atoms: _492  and  _493
REMARK  198  A    between atoms: _492  and  _495
REMARK  199  A    between atoms: _495  and  _496
REMARK  200  A    between atoms: _502  and  _503
REMARK  201  A    between atoms: _508  and  _510
REMARK  202  A    between atoms: _510  and  _511
REMARK  203  A    between atoms: _510  and  _513
REMARK  204  A    between atoms: _513  and  _514
REMARK  205  A    between atoms: _520  and  _522
REMARK  206  A    between atoms: _522  and  _523
REMARK  207  A    between atoms: _522  and  _525
REMARK  208  A    between atoms: _525  and  _526
REMARK  209  A    between atoms: _529  and  _531
REMARK  210  A    between atoms: _531  and  _532
REMARK  211  A    between atoms: _534  and  _536
REMARK  212  A    between atoms: _536  and  _537
REMARK  213  A    between atoms: _536  and  _539
REMARK  214  A    between atoms: _539  and  _540
REMARK  215  A    between atoms: _543  and  _545
REMARK  216  A    between atoms: _545  and  _546
REMARK  217  A    between atoms: _545  and  _548
REMARK  218  A    between atoms: _548  and  _549
REMARK  219  A    between atoms: _555  and  _557
REMARK  220  A    between atoms: _557  and  _558
REMARK  221  A    between atoms: _557  and  _560
REMARK  222  A    between atoms: _560  and  _561
REMARK  223  A    between atoms: _561  and  _562
REMARK  224  A    between atoms: _567  and  _569
REMARK  225  A    between atoms: _569  and  _570
REMARK  226  A    between atoms: _569  and  _572
REMARK  227  A    between atoms: _572  and  _573
REMARK  228  A    between atoms: _576  and  _578
REMARK  229  A    between atoms: _578  and  _579
REMARK  230  A    between atoms: _578  and  _581
REMARK  231  A    between atoms: _581  and  _582
REMARK  232  A    between atoms: _584  and  _586
REMARK  233  A    between atoms: _586  and  _587
REMARK  234  A    between atoms: _586  and  _589
REMARK  235  A    between atoms: _589  and  _590
REMARK  236  A    between atoms: _596  and  _598
REMARK  237  A    between atoms: _598  and  _599
REMARK  238  A    between atoms: _598  and  _601
REMARK  239  A    between atoms: _601  and  _602
REMARK  240  A    between atoms: _607  and  _608
REMARK  241  A    between atoms: _610  and  _612
REMARK  242  A    between atoms: _612  and  _613
REMARK  243  A    between atoms: _612  and  _615
REMARK  244  A    between atoms: _615  and  _616
REMARK                            x       y       z     vdW  Elec       q    Type
REMARK                         _______ _______ _______ _____ _____    ______ ____
ROOT
ATOM      1  CA  ASP A   1     -17.287   6.977  51.651  0.00  0.00    +0.144 C 
ENDROOT
BRANCH   1   2
ATOM      2  N   ASP A   1     -17.263   7.227  53.098  0.00  0.00    -0.239 NA
ATOM      3  H   ASP A   1     -16.656   7.987  53.465  0.00  0.00    +0.142 HD
ENDBRANCH   1   2
BRANCH   1   4
ATOM      4  C   ASP A   1     -18.691   7.066  51.025  0.00  0.00    +0.225 C 
ATOM      5  O   ASP A   1     -19.018   6.289  50.115  0.00  0.00    -0.287 OA
ENDBRANCH   1   4
BRANCH   1   6
ATOM      6  CB  ASP A   1     -16.663   5.608  51.301  0.00  0.00    +0.139 C 
BRANCH   6   7
ATOM      7  CG  ASP A   1     -15.250   5.435  51.845  0.00  0.00    +0.367 C 
ATOM      8  OD2 ASP A   1     -14.669   6.423  52.351  0.00  0.00    -0.246 OA
ATOM      9  OD1 ASP A   1     -14.725   4.293  51.776  0.00  0.00    -0.246 OA
ENDBRANCH   6   7
ENDBRANCH   1   6
TORSDOF 4
REMARK  Name = ../refined-set-2016/4ido/4ido_pocket.pdb
REMARK  244 active torsions:
REMARK  status: ('A' for Active; 'I' for Inactive)
REMARK    1  A    between atoms: _1  and  _3
REMARK    2  A    between atoms: _3  and  _4
REMARK    3  A    between atoms: _3  and  _6
REMARK    4  A    between atoms: _9  and  _11
REMARK    5  A    between atoms: _11  and  _12
REMARK    6  A    between atoms: _15  and  _17
REMARK    7  A    between atoms: _17  and  _18
REMARK    8  A    between atoms: _20  and  _22
REMARK    9  A    between atoms: _22  and  _23
REMARK   10  A    between atoms: _26  and  _28
REMARK   11  A    between atoms: _28  and  _29
REMARK   12  A    between atoms: _28  and  _31
REMARK   13  A    between atoms: _31  and  _32
REMARK   14  A    between atoms: _38  and  _40
REMARK   15  A    between atoms: _40  and  _41
REMARK   16  A    between atoms: _40  and  _43
REMARK   17  A    between atoms: _43  and  _44
REMARK   18  A    between atoms: _44  and  _45
REMARK   19  A    between atoms: _45  and  _46
REMARK   20  A    between atoms: _55  and  _57
REMARK   21  A    between atoms: _57  and  _58
REMARK   22  A    between atoms: _57  and  _60
REMARK   23  A    between atoms: _60  and  _61
REMARK   24  A    between atoms: _61  and  _62
REMARK   25  A    between atoms: _62  and  _63
REMARK   26  A    between atoms: _63  and  _64
REMARK   27  A    between atoms: _68  and  _70
REMARK   28  A    between atoms: _70  and  _71
REMARK   29  A    between atoms: _73  and  _75
REMARK   30  A    between atoms: _75  and  _76
REMARK   31  A    between atoms: _75  and  _78
REMARK   32  A    between atoms: _78  and  _79
REMARK   33  A    between atoms: _79  and  _80
REMARK   34  A    between atoms: _80  and  _81
REMARK   35  A    between atoms: _81  and  _82
REMARK   36  A    between atoms: _86  and  _88
REMARK   37  A    between atoms: _88  and  _89
REMARK   38  A    between atoms: _88  and  _91
REMARK   39  A    between atoms: _91  and  _92
REMARK   40  A    between atoms: _94  and  _96
REMARK   41  A    between atoms: _96  and  _97
REMARK   42  A    between atoms: _96  and  _99
REMARK   43  A    between atoms: _99  and  _100
REMARK   44  A    between atoms: _106  and  _108
REMARK   45  A    between atoms: _108  and  _109
REMARK   46  A    between atoms: _108  and  _111
REMARK   47  A    between atoms: _111  and  _112
REMARK   48  A    between atoms: _115  and  _117
REMARK   49  A    between atoms: _117  and  _118
REMARK   50  A    between atoms: _117  and  _120
REMARK   51  A    between atoms: _120  and  _121
REMARK   52  A    between atoms: _121  and  _122
REMARK   53  A    between atoms: _124  and  _126
REMARK   54  A    between atoms: _126  and  _127
REMARK   55  A    between atoms: _126  and  _129
REMARK   56  A    between atoms: _129  and  _130
REMARK   57  A    between atoms: _133  and  _135
REMARK   58  A    between atoms: _135  and  _136
REMARK   59  A    between atoms: _135  and  _138
REMARK   60  A    between atoms: _138  and  _139
REMARK   61  A    between atoms: _145  and  _147
REMARK   62  A    between atoms: _147  and  _148
REMARK   63  A    between atoms: _147  and  _150
REMARK   64  A    between atoms: _150  and  _151
REMARK   65  A    between atoms: _154  and  _156
REMARK   66  A    between atoms: _156  and  _157
REMARK   67  A    between atoms: _156  and  _159
REMARK   68  A    between atoms: _159  and  _160
REMARK   69  A    between atoms: _166  and  _168
REMARK   70  A    between atoms: _168  and  _169
REMARK   71  A    between atoms: _168  and  _171
REMARK   72  A    between atoms: _171  and  _172
REMARK   73  A    between atoms: _174  and  _176
REMARK   74  A    between atoms: _176  and  _177
REMARK   75  A    between atoms: _176  and  _179
REMARK   76  A    between atoms: _179  and  _180
REMARK   77  A    between atoms: _190  and  _192
REMARK   78  A    between atoms: _192  and  _193
REMARK   79  A    between atoms: _192  and  _195
REMARK   80  A    between atoms: _195  and  _196
REMARK   81  A    between atoms: _196  and  _197
REMARK   82  A    between atoms: _197  and  _198
REMARK   83  A    between atoms: _207  and  _209
REMARK   84  A    between atoms: _209  and  _210
REMARK   85  A    between atoms: _212  and  _214
REMARK   86  A    between atoms: _214  and  _215
REMARK   87  A    between atoms: _217  and  _219
REMARK   88  A    between atoms: _219  and  _220
REMARK   89  A    between atoms: _219  and  _222
REMARK   90  A    between atoms: _222  and  _223
REMARK   91  A    between atoms: _223  and  _224
REMARK   92  A    between atoms: _227  and  _229
REMARK   93  A    between atoms: _229  and  _230
REMARK   94  A    between atoms: _229  and  _232
REMARK   95  A    between atoms: _232  and  _233
REMARK   96  A    between atoms: _233  and  _234
REMARK   97  A    between atoms: _234  and  _235
REMARK   98  A    between atoms: _244  and  _246
REMARK   99  A    between atoms: _246  and  _247
REMARK  100  A    between atoms: _246  and  _249
REMARK  101  A    between atoms: _249  and  _250
REMARK  102  A    between atoms: _250  and  _251
REMARK  103  A    between atoms: _254  and  _256
REMARK  104  A    between atoms: _256  and  _257
REMARK  105  A    between atoms: _256  and  _259
REMARK  106  A    between atoms: _259  and  _260
REMARK  107  A    between atoms: _263  and  _265
REMARK  108  A    between atoms: _265  and  _266
REMARK  109  A    between atoms: _265  and  _268
REMARK  110  A    between atoms: _268  and  _269
REMARK  111  A    between atoms: _272  and  _274
REMARK  112  A    between atoms: _274  and  _275
REMARK  113  A    between atoms: _274  and  _277
REMARK  114  A    between atoms: _277  and  _278
REMARK  115  A    between atoms: _281  and  _283
REMARK  116  A    between atoms: _283  and  _284
REMARK  117  A    between atoms: _283  and  _286
REMARK  118  A    between atoms: _286  and  _287
REMARK  119  A    between atoms: _287  and  _288
REMARK  120  A    between atoms: _293  and  _295
REMARK  121  A    between atoms: _295  and  _296
REMARK  122  A    between atoms: _298  and  _300
REMARK  123  A    between atoms: _300  and  _301
REMARK  124  A    between atoms: _300  and  _303
REMARK  125  A    between atoms: _303  and  _304
REMARK  126  A    between atoms: _307  and  _309
REMARK  127  A    between atoms: _309  and  _310
REMARK  128  A    between atoms: _309  and  _312
REMARK  129  A    between atoms: _312  and  _313
REMARK  130  A    between atoms: _318  and  _320
REMARK  131  A    between atoms: _320  and  _321
REMARK  132  A    between atoms: _320  and  _323
REMARK  133  A    between atoms: _323  and  _324
REMARK  134  A    between atoms: _327  and  _329
REMARK  135  A    between atoms: _329  and  _330
REMARK  136  A    between atoms: _329  and  _332
REMARK  137  A    between atoms: _332  and  _333
REMARK  138  A    between atoms: _335  and  _337
REMARK  139  A    between atoms: _337  and  _338
REMARK  140  A    between atoms: _337  and  _340
REMARK  141  A    between atoms: _340  and  _341
REMARK  142  A    between atoms: _341  and  _342
REMARK  143  A    between atoms: _347  and  _349
REMARK  144  A    between atoms: _349  and  _350
REMARK  145  A    between atoms: _349  and  _352
REMARK  146  A    between atoms: _352  and  _353
REMARK  147  A    between atoms: _356  and  _358
REMARK  148  A    between atoms: _358  and  _359
REMARK  149  A    between atoms: _358  and  _361
REMARK  150  A    between atoms: _364  and  _366
REMARK  151  A    between atoms: _366  and  _367
REMARK  152  A    between atoms: _366  and  _369
REMARK  153  A    between atoms: _369  and  _370
REMARK  154  A    between atoms: _370  and  _371
REMARK  155  A    between atoms: _371  and  _372
REMARK  156  A    between atoms: _381  and  _383
REMARK  157  A    between atoms: _383  and  _384
REMARK  158  A    between atoms: _383  and  _386
REMARK  159  A    between atoms: _386  and  _387
REMARK  160  A    between atoms: _390  and  _392
REMARK  161  A    between atoms: _392  and  _393
REMARK  162  A    between atoms: _392  and  _395
REMARK  163  A    between atoms: _395  and  _396
REMARK  164  A    between atoms: _406  and  _408
REMARK  165  A    between atoms: _408  and  _409
REMARK  166  A    between atoms: _408  and  _411
REMARK  167  A    between atoms: _411  and  _412
REMARK  168  A    between atoms: _416  and  _417
REMARK  169  A    between atoms: _422  and  _424
REMARK  170  A    between atoms: _424  and  _425
REMARK  171  A    between atoms: _424  and  _427
REMARK  172  A    between atoms: _427  and  _428
REMARK  173  A    between atoms: _434  and  _435
REMARK  174  A    between atoms: _440  and  _442
REMARK  175  A    between atoms: _442  and  _443
REMARK  176  A    between atoms: _445  and  _447
REMARK  177  A    between atoms: _447  and  _448
REMARK  178  A    between atoms: _447  and  _450
REMARK  179  A    between atoms: _450  and  _451
REMARK  180  A    between atoms: _454  and  _456
REMARK  181  A    between atoms: _456  and  _457
REMARK  182  A    between atoms: _456  and  _459
REMARK  183  A    between atoms: _459  and  _460
REMARK  184  A    between atoms: _460  and  _461
REMARK  185  A    between atoms: _461  and  _462
REMARK  186  A    between atoms: _462  and  _463
REMARK  187  A    between atoms: _467  and  _469
REMARK  188  A    between atoms: _469  and  _470
REMARK  189  A    between atoms: _469  and  _472
REMARK  190  A    between atoms: _475  and  _477
REMARK  191  A    between atoms: _477  and  _478
REMARK  192  A    between atoms: _481  and  _483
REMARK  193  A    between atoms: _483  and  _484
REMARK  194  A    between atoms: _483  and  _486
REMARK  195  A    between atoms: _486  and  _487
REMARK  196  A    between atoms: _490  and  _492
REMARK  197  A    between atoms: _492  and  _493
REMARK  198  A    between atoms: _492  and  _495
REMARK  199  A    between atoms: _495  and  _496
REMARK  200  A    between atoms: _502  and  _503
REMARK  201  A    between atoms: _508  and  _510
REMARK  202  A    between atoms: _510  and  _511
REMARK  203  A    between atoms: _510  and  _513
REMARK  204  A    between atoms: _513  and  _514
REMARK  205  A    between atoms: _520  and  _522
REMARK  206  A    between atoms: _522  and  _523
REMARK  207  A    between atoms: _522  and  _525
REMARK  208  A    between atoms: _525  and  _526
REMARK  209  A    between atoms: _529  and  _531
REMARK  210  A    between atoms: _531  and  _532
REMARK  211  A    between atoms: _534  and  _536
REMARK  212  A    between atoms: _536  and  _537
REMARK  213  A    between atoms: _536  and  _539
REMARK  214  A    between atoms: _539  and  _540
REMARK  215  A    between atoms: _543  and  _545
REMARK  216  A    between atoms: _545  and  _546
REMARK  217  A    between atoms: _545  and  _548
REMARK  218  A    between atoms: _548  and  _549
REMARK  219  A    between atoms: _555  and  _557
REMARK  220  A    between atoms: _557  and  _558
REMARK  221  A    between atoms: _557  and  _560
REMARK  222  A    between atoms: _560  and  _561
REMARK  223  A    between atoms: _561  and  _562
REMARK  224  A    between atoms: _567  and  _569
REMARK  225  A    between atoms: _569  and  _570
REMARK  226  A    between atoms: _569  and  _572
REMARK  227  A    between atoms: _572  and  _573
REMARK  228  A    between atoms: _576  and  _578
REMARK  229  A    between atoms: _578  and  _579
REMARK  230  A    between atoms: _578  and  _581
REMARK  231  A    between atoms: _581  and  _582
REMARK  232  A    between atoms: _584  and  _586
REMARK  233  A    between atoms: _586  and  _587
REMARK  234  A    between atoms: _586  and  _589
REMARK  235  A    between atoms: _589  and  _590
REMARK  236  A    between atoms: _596  and  _598
REMARK  237  A    between atoms: _598  and  _599
REMARK  238  A    between atoms: _598  and  _601
REMARK  239  A    between atoms: _601  and  _602
REMARK  240  A    between atoms: _607  and  _608
REMARK  241  A    between atoms: _610  and  _612
REMARK  242  A    between atoms: _612  and  _613
REMARK  243  A    between atoms: _612  and  _615
REMARK  244  A    between atoms: _615  and  _616
REMARK                            x       y       z     vdW  Elec       q    Type
REMARK                         _______ _______ _______ _____ _____    ______ ____
ROOT
ATOM      1  C   SER A   1     -21.942   8.928  46.293  0.00  0.00    +0.241 C 
ATOM      2  N   PHE A   2     -23.013   9.417  46.931  0.00  0.00    -0.298 N 
ATOM      3  H   PHE A   2     -23.089   9.330  47.965  0.00  0.00    +0.150 HD
ATOM      4  O   SER A   1     -21.727   9.139  45.093  0.00  0.00    -0.274 OA
ENDROOT
BRANCH   1   5
ATOM      5  CA  SER A   1     -20.939   8.096  47.094  0.00  0.00    +0.174 C 
BRANCH   5   6
ATOM      6  N   SER A   1     -21.234   7.972  48.515  0.00  0.00    -0.236 NA
ATOM      7  H   SER A   1     -22.027   7.374  48.823  0.00  0.00    +0.142 HD
ENDBRANCH   5   6
BRANCH   5   8
ATOM      8  CB  SER A   1     -20.839   6.702  46.457  0.00  0.00    +0.163 C 
BRANCH   8   9
ATOM      9  OG  SER A   1     -19.818   5.922  47.066  0.00  0.00    -0.380 OA
ATOM     10  H   SER A   1     -19.781   5.033  46.633  0.00  0.00    +0.211 HD
ENDBRANCH   8   9
ENDBRANCH   5   8
ENDBRANCH   1   5
BRANCH   2  11
ATOM     11  CA  PHE A   2     -24.092  10.084  46.160  0.00  0.00    +0.141 C 
BRANCH  11  12
ATOM     12  C   PHE A   2     -24.510  11.475  46.659  0.00  0.00    +0.227 C 
ATOM     13  O   PHE A   2     -25.683  11.687  47.009  0.00  0.00    -0.286 OA
ENDBRANCH  11  12
BRANCH  11  14
ATOM     14  CB  PHE A   2     -25.312   9.173  46.087  0.00  0.00    +0.054 C 
BRANCH  14  15
ATOM     15  CG  PHE A   2     -24.958   7.742  45.847  0.00  0.00    -0.020 A 
ATOM     16  CD2 PHE A   2     -25.161   6.790  46.834  0.00  0.00    -0.004 A 
ATOM     17  CE2 PHE A   2     -24.807   5.475  46.625  0.00  0.00    -0.000 A 
ATOM     18  CZ  PHE A   2     -24.240   5.093  45.422  0.00  0.00    -0.000 A 
ATOM     19  CE1 PHE A   2     -24.019   6.035  44.433  0.00  0.00    -0.000 A 
ATOM     20  CD1 PHE A   2     -24.375   7.350  44.646  0.00  0.00    -0.004 A 
ENDBRANCH  14  15
ENDBRANCH  11  14
ENDBRANCH   2  11
TORSDOF 8
REMARK  Name = ../refined-set-2016/4ido/4ido_pocket.pdb
REMARK  244 active torsions:
REMARK  status: ('A' for Active; 'I' for Inactive)
REMARK    1  A    between atoms: _1  and  _3
REMARK    2  A    between atoms: _3  and  _4
REMARK    3  A    between atoms: _3  and  _6
REMARK    4  A    between atoms: _9  and  _11
REMARK    5  A    between atoms: _11  and  _12
REMARK    6  A    between atoms: _15  and  _17
REMARK    7  A    between atoms: _17  and  _18
REMARK    8  A    between atoms: _20  and  _22
REMARK    9  A    between atoms: _22  and  _23
REMARK   10  A    between atoms: _26  and  _28
REMARK   11  A    between atoms: _28  and  _29
REMARK   12  A    between atoms: _28  and  _31
REMARK   13  A    between atoms: _31  and  _32
REMARK   14  A    between atoms: _38  and  _40
REMARK   15  A    between atoms: _40  and  _41
REMARK   16  A    between atoms: _40  and  _43
REMARK   17  A    between atoms: _43  and  _44
REMARK   18  A    between atoms: _44  and  _45
REMARK   19  A    between atoms: _45  and  _46
REMARK   20  A    between atoms: _55  and  _57
REMARK   21  A    between atoms: _57  and  _58
REMARK   22  A    between atoms: _57  and  _60
REMARK   23  A    between atoms: _60  and  _61
REMARK   24  A    between atoms: _61  and  _62
REMARK   25  A    between atoms: _62  and  _63
REMARK   26  A    between atoms: _63  and  _64
REMARK   27  A    between atoms: _68  and  _70
REMARK   28  A    between atoms: _70  and  _71
REMARK   29  A    between atoms: _73  and  _75
REMARK   30  A    between atoms: _75  and  _76
REMARK   31  A    between atoms: _75  and  _78
REMARK   32  A    between atoms: _78  and  _79
REMARK   33  A    between atoms: _79  and  _80
REMARK   34  A    between atoms: _80  and  _81
REMARK   35  A    between atoms: _81  and  _82
REMARK   36  A    between atoms: _86  and  _88
REMARK   37  A    between atoms: _88  and  _89
REMARK   38  A    between atoms: _88  and  _91
REMARK   39  A    between atoms: _91  and  _92
REMARK   40  A    between atoms: _94  and  _96
REMARK   41  A    between atoms: _96  and  _97
REMARK   42  A    between atoms: _96  and  _99
REMARK   43  A    between atoms: _99  and  _100
REMARK   44  A    between atoms: _106  and  _108
REMARK   45  A    between atoms: _108  and  _109
REMARK   46  A    between atoms: _108  and  _111
REMARK   47  A    between atoms: _111  and  _112
REMARK   48  A    between atoms: _115  and  _117
REMARK   49  A    between atoms: _117  and  _118
REMARK   50  A    between atoms: _117  and  _120
REMARK   51  A    between atoms: _120  and  _121
REMARK   52  A    between atoms: _121  and  _122
REMARK   53  A    between atoms: _124  and  _126
REMARK   54  A    between atoms: _126  and  _127
REMARK   55  A    between atoms: _126  and  _129
REMARK   56  A    between atoms: _129  and  _130
REMARK   57  A    between atoms: _133  and  _135
REMARK   58  A    between atoms: _135  and  _136
REMARK   59  A    between atoms: _135  and  _138
REMARK   60  A    between atoms: _138  and  _139
REMARK   61  A    between atoms: _145  and  _147
REMARK   62  A    between atoms: _147  and  _148
REMARK   63  A    between atoms: _147  and  _150
REMARK   64  A    between atoms: _150  and  _151
REMARK   65  A    between atoms: _154  and  _156
REMARK   66  A    between atoms: _156  and  _157
REMARK   67  A    between atoms: _156  and  _159
REMARK   68  A    between atoms: _159  and  _160
REMARK   69  A    between atoms: _166  and  _168
REMARK   70  A    between atoms: _168  and  _169
REMARK   71  A    between atoms: _168  and  _171
REMARK   72  A    between atoms: _171  and  _172
REMARK   73  A    between atoms: _174  and  _176
REMARK   74  A    between atoms: _176  and  _177
REMARK   75  A    between atoms: _176  and  _179
REMARK   76  A    between atoms: _179  and  _180
REMARK   77  A    between atoms: _190  and  _192
REMARK   78  A    between atoms: _192  and  _193
REMARK   79  A    between atoms: _192  and  _195
REMARK   80  A    between atoms: _195  and  _196
REMARK   81  A    between atoms: _196  and  _197
REMARK   82  A    between atoms: _197  and  _198
REMARK   83  A    between atoms: _207  and  _209
REMARK   84  A    between atoms: _209  and  _210
REMARK   85  A    between atoms: _212  and  _214
REMARK   86  A    between atoms: _214  and  _215
REMARK   87  A    between atoms: _217  and  _219
REMARK   88  A    between atoms: _219  and  _220
REMARK   89  A    between atoms: _219  and  _222
REMARK   90  A    between atoms: _222  and  _223
REMARK   91  A    between atoms: _223  and  _224
REMARK   92  A    between atoms: _227  and  _229
REMARK   93  A    between atoms: _229  and  _230
REMARK   94  A    between atoms: _229  and  _232
REMARK   95  A    between atoms: _232  and  _233
REMARK   96  A    between atoms: _233  and  _234
REMARK   97  A    between atoms: _234  and  _235
REMARK   98  A    between atoms: _244  and  _246
REMARK   99  A    between atoms: _246  and  _247
REMARK  100  A    between atoms: _246  and  _249
REMARK  101  A    between atoms: _249  and  _250
REMARK  102  A    between atoms: _250  and  _251
REMARK  103  A    between atoms: _254  and  _256
REMARK  104  A    between atoms: _256  and  _257
REMARK  105  A    between atoms: _256  and  _259
REMARK  106  A    between atoms: _259  and  _260
REMARK  107  A    between atoms: _263  and  _265
REMARK  108  A    between atoms: _265  and  _266
REMARK  109  A    between atoms: _265  and  _268
REMARK  110  A    between atoms: _268  and  _269
REMARK  111  A    between atoms: _272  and  _274
REMARK  112  A    between atoms: _274  and  _275
REMARK  113  A    between atoms: _274  and  _277
REMARK  114  A    between atoms: _277  and  _278
REMARK  115  A    between atoms: _281  and  _283
REMARK  116  A    between atoms: _283  and  _284
REMARK  117  A    between atoms: _283  and  _286
REMARK  118  A    between atoms: _286  and  _287
REMARK  119  A    between atoms: _287  and  _288
REMARK  120  A    between atoms: _293  and  _295
REMARK  121  A    between atoms: _295  and  _296
REMARK  122  A    between atoms: _298  and  _300
REMARK  123  A    between atoms: _300  and  _301
REMARK  124  A    between atoms: _300  and  _303
REMARK  125  A    between atoms: _303  and  _304
REMARK  126  A    between atoms: _307  and  _309
REMARK  127  A    between atoms: _309  and  _310
REMARK  128  A    between atoms: _309  and  _312
REMARK  129  A    between atoms: _312  and  _313
REMARK  130  A    between atoms: _318  and  _320
REMARK  131  A    between atoms: _320  and  _321
REMARK  132  A    between atoms: _320  and  _323
REMARK  133  A    between atoms: _323  and  _324
REMARK  134  A    between atoms: _327  and  _329
REMARK  135  A    between atoms: _329  and  _330
REMARK  136  A    between atoms: _329  and  _332
REMARK  137  A    between atoms: _332  and  _333
REMARK  138  A    between atoms: _335  and  _337
REMARK  139  A    between atoms: _337  and  _338
REMARK  140  A    between atoms: _337  and  _340
REMARK  141  A    between atoms: _340  and  _341
REMARK  142  A    between atoms: _341  and  _342
REMARK  143  A    between atoms: _347  and  _349
REMARK  144  A    between atoms: _349  and  _350
REMARK  145  A    between atoms: _349  and  _352
REMARK  146  A    between atoms: _352  and  _353
REMARK  147  A    between atoms: _356  and  _358
REMARK  148  A    between atoms: _358  and  _359
REMARK  149  A    between atoms: _358  and  _361
REMARK  150  A    between atoms: _364  and  _366
REMARK  151  A    between atoms: _366  and  _367
REMARK  152  A    between atoms: _366  and  _369
REMARK  153  A    between atoms: _369  and  _370
REMARK  154  A    between atoms: _370  and  _371
REMARK  155  A    between atoms: _371  and  _372
REMARK  156  A    between atoms: _381  and  _383
REMARK  157  A    between atoms: _383  and  _384
REMARK  158  A    between atoms: _383  and  _386
REMARK  159  A    between atoms: _386  and  _387
REMARK  160  A    between atoms: _390  and  _392
REMARK  161  A    between atoms: _392  and  _393
REMARK  162  A    between atoms: _392  and  _395
REMARK  163  A    between atoms: _395  and  _396
REMARK  164  A    between atoms: _406  and  _408
REMARK  165  A    between atoms: _408  and  _409
REMARK  166  A    between atoms: _408  and  _411
REMARK  167  A    between atoms: _411  and  _412
REMARK  168  A    between atoms: _416  and  _417
REMARK  169  A    between atoms: _422  and  _424
REMARK  170  A    between atoms: _424  and  _425
REMARK  171  A    between atoms: _424  and  _427
REMARK  172  A    between atoms: _427  and  _428
REMARK  173  A    between atoms: _434  and  _435
REMARK  174  A    between atoms: _440  and  _442
REMARK  175  A    between atoms: _442  and  _443
REMARK  176  A    between atoms: _445  and  _447
REMARK  177  A    between atoms: _447  and  _448
REMARK  178  A    between atoms: _447  and  _450
REMARK  179  A    between atoms: _450  and  _451
REMARK  180  A    between atoms: _454  and  _456
REMARK  181  A    between atoms: _456  and  _457
REMARK  182  A    between atoms: _456  and  _459
REMARK  183  A    between atoms: _459  and  _460
REMARK  184  A    between atoms: _460  and  _461
REMARK  185  A    between atoms: _461  and  _462
REMARK  186  A    between atoms: _462  and  _463
REMARK  187  A    between atoms: _467  and  _469
REMARK  188  A    between atoms: _469  and  _470
REMARK  189  A    between atoms: _469  and  _472
REMARK  190  A    between atoms: _475  and  _477
REMARK  191  A    between atoms: _477  and  _478
REMARK  192  A    between atoms: _481  and  _483
REMARK  193  A    between atoms: _483  and  _484
REMARK  194  A    between atoms: _483  and  _486
REMARK  195  A    between atoms: _486  and  _487
REMARK  196  A    between atoms: _490  and  _492
REMARK  197  A    between atoms: _492  and  _493
REMARK  198  A    between atoms: _492  and  _495
REMARK  199  A    between atoms: _495  and  _496
REMARK  200  A    between atoms: _502  and  _503
REMARK  201  A    between atoms: _508  and  _510
REMARK  202  A    between atoms: _510  and  _511
REMARK  203  A    between atoms: _510  and  _513
REMARK  204  A    between atoms: _513  and  _514
REMARK  205  A    between atoms: _520  and  _522
REMARK  206  A    between atoms: _522  and  _523
REMARK  207  A    between atoms: _522  and  _525
REMARK  208  A    between atoms: _525  and  _526
REMARK  209  A    between atoms: _529  and  _531
REMARK  210  A    between atoms: _531  and  _532
REMARK  211  A    between atoms: _534  and  _536
REMARK  212  A    between atoms: _536  and  _537
REMARK  213  A    between atoms: _536  and  _539
REMARK  214  A    between atoms: _539  and  _540
REMARK  215  A    between atoms: _543  and  _545
REMARK  216  A    between atoms: _545  and  _546
REMARK  217  A    between atoms: _545  and  _548
REMARK  218  A    between atoms: _548  and  _549
REMARK  219  A    between atoms: _555  and  _557
REMARK  220  A    between atoms: _557  and  _558
REMARK  221  A    between atoms: _557  and  _560
REMARK  222  A    between atoms: _560  and  _561
REMARK  223  A    between atoms: _561  and  _562
REMARK  224  A    between atoms: _567  and  _569
REMARK  225  A    between atoms: _569  and  _570
REMARK  226  A    between atoms: _569  and  _572
REMARK  227  A    between atoms: _572  and  _573
REMARK  228  A    between atoms: _576  and  _578
REMARK  229  A    between atoms: _578  and  _579
REMARK  230  A    between atoms: _578  and  _581
REMARK  231  A    between atoms: _581  and  _582
REMARK  232  A    between atoms: _584  and  _586
REMARK  233  A    between atoms: _586  and  _587
REMARK  234  A    between atoms: _586  and  _589
REMARK  235  A    between atoms: _589  and  _590
REMARK  236  A    between atoms: _596  and  _598
REMARK  237  A    between atoms: _598  and  _599
REMARK  238  A    between atoms: _598  and  _601
REMARK  239  A    between atoms: _601  and  _602
REMARK  240  A    between atoms: _607  and  _608
REMARK  241  A    between atoms: _610  and  _612
REMARK  242  A    between atoms: _612  and  _613
REMARK  243  A    between atoms: _612  and  _615
REMARK  244  A    between atoms: _615  and  _616
REMARK                            x       y       z     vdW  Elec       q    Type
REMARK                         _______ _______ _______ _____ _____    ______ ____
ROOT
ATOM      1  CG  TYR A   1     -25.687  12.705  42.502  0.00  0.00    -0.020 A 
ATOM      2  CD2 TYR A   1     -24.412  12.134  42.514  0.00  0.00    -0.001 A 
ATOM      3  CE2 TYR A   1     -24.232  10.771  42.309  0.00  0.00    +0.036 A 
ATOM      4  CZ  TYR A   1     -25.333   9.964  42.087  0.00  0.00    +0.134 A 
ATOM      5  CE1 TYR A   1     -26.608  10.517  42.066  0.00  0.00    +0.036 A 
ATOM      6  CD1 TYR A   1     -26.776  11.875  42.280  0.00  0.00    -0.001 A 
ENDROOT
BRANCH   4   7
ATOM      7  OH  TYR A   1     -25.160   8.611  41.874  0.00  0.00    -0.506 OA
ATOM      8  HH  TYR A   1     -24.594   8.474  41.073  0.00  0.00    +0.292 HD
ENDBRANCH   4   7
BRANCH   1   9
ATOM      9  CB  TYR A   1     -25.873  14.185  42.728  0.00  0.00    +0.051 C 
BRANCH   9  10
ATOM     10  CA  TYR A   1     -26.121  14.563  44.191  0.00  0.00    +0.137 C 
BRANCH  10  11
ATOM     11  N   TYR A   1     -25.059  14.062  45.059  0.00  0.00    -0.239 NA
ATOM     12  H   TYR A   1     -24.369  13.384  44.677  0.00  0.00    +0.142 HD
ENDBRANCH  10  11
BRANCH  10  13
ATOM     13  C   TYR A   1     -27.498  14.085  44.632  0.00  0.00    +0.224 C 
ATOM     14  O   TYR A   1     -28.516  14.592  44.186  0.00  0.00    -0.287 OA
ENDBRANCH  10  13
ENDBRANCH   9  10
ENDBRANCH   1   9
TORSDOF 5
REMARK  Name = ../refined-set-2016/4ido/4ido_pocket.pdb
REMARK  244 active torsions:
REMARK  status: ('A' for Active; 'I' for Inactive)
REMARK    1  A    between atoms: _1  and  _3
REMARK    2  A    between atoms: _3  and  _4
REMARK    3  A    between atoms: _3  and  _6
REMARK    4  A    between atoms: _9  and  _11
REMARK    5  A    between atoms: _11  and  _12
REMARK    6  A    between atoms: _15  and  _17
REMARK    7  A    between atoms: _17  and  _18
REMARK    8  A    between atoms: _20  and  _22
REMARK    9  A    between atoms: _22  and  _23
REMARK   10  A    between atoms: _26  and  _28
REMARK   11  A    between atoms: _28  and  _29
REMARK   12  A    between atoms: _28  and  _31
REMARK   13  A    between atoms: _31  and  _32
REMARK   14  A    between atoms: _38  and  _40
REMARK   15  A    between atoms: _40  and  _41
REMARK   16  A    between atoms: _40  and  _43
REMARK   17  A    between atoms: _43  and  _44
REMARK   18  A    between atoms: _44  and  _45
REMARK   19  A    between atoms: _45  and  _46
REMARK   20  A    between atoms: _55  and  _57
REMARK   21  A    between atoms: _57  and  _58
REMARK   22  A    between atoms: _57  and  _60
REMARK   23  A    between atoms: _60  and  _61
REMARK   24  A    between atoms: _61  and  _62
REMARK   25  A    between atoms: _62  and  _63
REMARK   26  A    between atoms: _63  and  _64
REMARK   27  A    between atoms: _68  and  _70
REMARK   28  A    between atoms: _70  and  _71
REMARK   29  A    between atoms: _73  and  _75
REMARK   30  A    between atoms: _75  and  _76
REMARK   31  A    between atoms: _75  and  _78
REMARK   32  A    between atoms: _78  and  _79
REMARK   33  A    between atoms: _79  and  _80
REMARK   34  A    between atoms: _80  and  _81
REMARK   35  A    between atoms: _81  and  _82
REMARK   36  A    between atoms: _86  and  _88
REMARK   37  A    between atoms: _88  and  _89
REMARK   38  A    between atoms: _88  and  _91
REMARK   39  A    between atoms: _91  and  _92
REMARK   40  A    between atoms: _94  and  _96
REMARK   41  A    between atoms: _96  and  _97
REMARK   42  A    between atoms: _96  and  _99
REMARK   43  A    between atoms: _99  and  _100
REMARK   44  A    between atoms: _106  and  _108
REMARK   45  A    between atoms: _108  and  _109
REMARK   46  A    between atoms: _108  and  _111
REMARK   47  A    between atoms: _111  and  _112
REMARK   48  A    between atoms: _115  and  _117
REMARK   49  A    between atoms: _117  and  _118
REMARK   50  A    between atoms: _117  and  _120
REMARK   51  A    between atoms: _120  and  _121
REMARK   52  A    between atoms: _121  and  _122
REMARK   53  A    between atoms: _124  and  _126
REMARK   54  A    between atoms: _126  and  _127
REMARK   55  A    between atoms: _126  and  _129
REMARK   56  A    between atoms: _129  and  _130
REMARK   57  A    between atoms: _133  and  _135
REMARK   58  A    between atoms: _135  and  _136
REMARK   59  A    between atoms: _135  and  _138
REMARK   60  A    between atoms: _138  and  _139
REMARK   61  A    between atoms: _145  and  _147
REMARK   62  A    between atoms: _147  and  _148
REMARK   63  A    between atoms: _147  and  _150
REMARK   64  A    between atoms: _150  and  _151
REMARK   65  A    between atoms: _154  and  _156
REMARK   66  A    between atoms: _156  and  _157
REMARK   67  A    between atoms: _156  and  _159
REMARK   68  A    between atoms: _159  and  _160
REMARK   69  A    between atoms: _166  and  _168
REMARK   70  A    between atoms: _168  and  _169
REMARK   71  A    between atoms: _168  and  _171
REMARK   72  A    between atoms: _171  and  _172
REMARK   73  A    between atoms: _174  and  _176
REMARK   74  A    between atoms: _176  and  _177
REMARK   75  A    between atoms: _176  and  _179
REMARK   76  A    between atoms: _179  and  _180
REMARK   77  A    between atoms: _190  and  _192
REMARK   78  A    between atoms: _192  and  _193
REMARK   79  A    between atoms: _192  and  _195
REMARK   80  A    between atoms: _195  and  _196
REMARK   81  A    between atoms: _196  and  _197
REMARK   82  A    between atoms: _197  and  _198
REMARK   83  A    between atoms: _207  and  _209
REMARK   84  A    between atoms: _209  and  _210
REMARK   85  A    between atoms: _212  and  _214
REMARK   86  A    between atoms: _214  and  _215
REMARK   87  A    between atoms: _217  and  _219
REMARK   88  A    between atoms: _219  and  _220
REMARK   89  A    between atoms: _219  and  _222
REMARK   90  A    between atoms: _222  and  _223
REMARK   91  A    between atoms: _223  and  _224
REMARK   92  A    between atoms: _227  and  _229
REMARK   93  A    between atoms: _229  and  _230
REMARK   94  A    between atoms: _229  and  _232
REMARK   95  A    between atoms: _232  and  _233
REMARK   96  A    between atoms: _233  and  _234
REMARK   97  A    between atoms: _234  and  _235
REMARK   98  A    between atoms: _244  and  _246
REMARK   99  A    between atoms: _246  and  _247
REMARK  100  A    between atoms: _246  and  _249
REMARK  101  A    between atoms: _249  and  _250
REMARK  102  A    between atoms: _250  and  _251
REMARK  103  A    between atoms: _254  and  _256
REMARK  104  A    between atoms: _256  and  _257
REMARK  105  A    between atoms: _256  and  _259
REMARK  106  A    between atoms: _259  and  _260
REMARK  107  A    between atoms: _263  and  _265
REMARK  108  A    between atoms: _265  and  _266
REMARK  109  A    between atoms: _265  and  _268
REMARK  110  A    between atoms: _268  and  _269
REMARK  111  A    between atoms: _272  and  _274
REMARK  112  A    between atoms: _274  and  _275
REMARK  113  A    between atoms: _274  and  _277
REMARK  114  A    between atoms: _277  and  _278
REMARK  115  A    between atoms: _281  and  _283
REMARK  116  A    between atoms: _283  and  _284
REMARK  117  A    between atoms: _283  and  _286
REMARK  118  A    between atoms: _286  and  _287
REMARK  119  A    between atoms: _287  and  _288
REMARK  120  A    between atoms: _293  and  _295
REMARK  121  A    between atoms: _295  and  _296
REMARK  122  A    between atoms: _298  and  _300
REMARK  123  A    between atoms: _300  and  _301
REMARK  124  A    between atoms: _300  and  _303
REMARK  125  A    between atoms: _303  and  _304
REMARK  126  A    between atoms: _307  and  _309
REMARK  127  A    between atoms: _309  and  _310
REMARK  128  A    between atoms: _309  and  _312
REMARK  129  A    between atoms: _312  and  _313
REMARK  130  A    between atoms: _318  and  _320
REMARK  131  A    between atoms: _320  and  _321
REMARK  132  A    between atoms: _320  and  _323
REMARK  133  A    between atoms: _323  and  _324
REMARK  134  A    between atoms: _327  and  _329
REMARK  135  A    between atoms: _329  and  _330
REMARK  136  A    between atoms: _329  and  _332
REMARK  137  A    between atoms: _332  and  _333
REMARK  138  A    between atoms: _335  and  _337
REMARK  139  A    between atoms: _337  and  _338
REMARK  140  A    between atoms: _337  and  _340
REMARK  141  A    between atoms: _340  and  _341
REMARK  142  A    between atoms: _341  and  _342
REMARK  143  A    between atoms: _347  and  _349
REMARK  144  A    between atoms: _349  and  _350
REMARK  145  A    between atoms: _349  and  _352
REMARK  146  A    between atoms: _352  and  _353
REMARK  147  A    between atoms: _356  and  _358
REMARK  148  A    between atoms: _358  and  _359
REMARK  149  A    between atoms: _358  and  _361
REMARK  150  A    between atoms: _364  and  _366
REMARK  151  A    between atoms: _366  and  _367
REMARK  152  A    between atoms: _366  and  _369
REMARK  153  A    between atoms: _369  and  _370
REMARK  154  A    between atoms: _370  and  _371
REMARK  155  A    between atoms: _371  and  _372
REMARK  156  A    between atoms: _381  and  _383
REMARK  157  A    between atoms: _383  and  _384
REMARK  158  A    between atoms: _383  and  _386
REMARK  159  A    between atoms: _386  and  _387
REMARK  160  A    between atoms: _390  and  _392
REMARK  161  A    between atoms: _392  and  _393
REMARK  162  A    between atoms: _392  and  _395
REMARK  163  A    between atoms: _395  and  _396
REMARK  164  A    between atoms: _406  and  _408
REMARK  165  A    between atoms: _408  and  _409
REMARK  166  A    between atoms: _408  and  _411
REMARK  167  A    between atoms: _411  and  _412
REMARK  168  A    between atoms: _416  and  _417
REMARK  169  A    between atoms: _422  and  _424
REMARK  170  A    between atoms: _424  and  _425
REMARK  171  A    between atoms: _424  and  _427
REMARK  172  A    between atoms: _427  and  _428
REMARK  173  A    between atoms: _434  and  _435
REMARK  174  A    between atoms: _440  and  _442
REMARK  175  A    between atoms: _442  and  _443
REMARK  176  A    between atoms: _445  and  _447
REMARK  177  A    between atoms: _447  and  _448
REMARK  178  A    between atoms: _447  and  _450
REMARK  179  A    between atoms: _450  and  _451
REMARK  180  A    between atoms: _454  and  _456
REMARK  181  A    between atoms: _456  and  _457
REMARK  182  A    between atoms: _456  and  _459
REMARK  183  A    between atoms: _459  and  _460
REMARK  184  A    between atoms: _460  and  _461
REMARK  185  A    between atoms: _461  and  _462
REMARK  186  A    between atoms: _462  and  _463
REMARK  187  A    between atoms: _467  and  _469
REMARK  188  A    between atoms: _469  and  _470
REMARK  189  A    between atoms: _469  and  _472
REMARK  190  A    between atoms: _475  and  _477
REMARK  191  A    between atoms: _477  and  _478
REMARK  192  A    between atoms: _481  and  _483
REMARK  193  A    between atoms: _483  and  _484
REMARK  194  A    between atoms: _483  and  _486
REMARK  195  A    between atoms: _486  and  _487
REMARK  196  A    between atoms: _490  and  _492
REMARK  197  A    between atoms: _492  and  _493
REMARK  198  A    between atoms: _492  and  _495
REMARK  199  A    between atoms: _495  and  _496
REMARK  200  A    between atoms: _502  and  _503
REMARK  201  A    between atoms: _508  and  _510
REMARK  202  A    between atoms: _510  and  _511
REMARK  203  A    between atoms: _510  and  _513
REMARK  204  A    between atoms: _513  and  _514
REMARK  205  A    between atoms: _520  and  _522
REMARK  206  A    between atoms: _522  and  _523
REMARK  207  A    between atoms: _522  and  _525
REMARK  208  A    between atoms: _525  and  _526
REMARK  209  A    between atoms: _529  and  _531
REMARK  210  A    between atoms: _531  and  _532
REMARK  211  A    between atoms: _534  and  _536
REMARK  212  A    between atoms: _536  and  _537
REMARK  213  A    between atoms: _536  and  _539
REMARK  214  A    between atoms: _539  and  _540
REMARK  215  A    between atoms: _543  and  _545
REMARK  216  A    between atoms: _545  and  _546
REMARK  217  A    between atoms: _545  and  _548
REMARK  218  A    between atoms: _548  and  _549
REMARK  219  A    between atoms: _555  and  _557
REMARK  220  A    between atoms: _557  and  _558
REMARK  221  A    between atoms: _557  and  _560
REMARK  222  A    between atoms: _560  and  _561
REMARK  223  A    between atoms: _561  and  _562
REMARK  224  A    between atoms: _567  and  _569
REMARK  225  A    between atoms: _569  and  _570
REMARK  226  A    between atoms: _569  and  _572
REMARK  227  A    between atoms: _572  and  _573
REMARK  228  A    between atoms: _576  and  _578
REMARK  229  A    between atoms: _578  and  _579
REMARK  230  A    between atoms: _578  and  _581
REMARK  231  A    between atoms: _581  and  _582
REMARK  232  A    between atoms: _584  and  _586
REMARK  233  A    between atoms: _586  and  _587
REMARK  234  A    between atoms: _586  and  _589
REMARK  235  A    between atoms: _589  and  _590
REMARK  236  A    between atoms: _596  and  _598
REMARK  237  A    between atoms: _598  and  _599
REMARK  238  A    between atoms: _598  and  _601
REMARK  239  A    between atoms: _601  and  _602
REMARK  240  A    between atoms: _607  and  _608
REMARK  241  A    between atoms: _610  and  _612
REMARK  242  A    between atoms: _612  and  _613
REMARK  243  A    between atoms: _612  and  _615
REMARK  244  A    between atoms: _615  and  _616
REMARK                            x       y       z     vdW  Elec       q    Type
REMARK                         _______ _______ _______ _____ _____    ______ ____
ROOT
ATOM      1  CB  HIS A   1     -14.230   8.443  49.057  0.00  0.00    +0.072 C 
ENDROOT
BRANCH   1   2
ATOM      2  CG  HIS A   1     -13.277   7.292  49.033  0.00  0.00    +0.082 A 
ATOM      3  ND1 HIS A   1     -11.907   7.460  49.047  0.00  0.00    -0.227 NA
ATOM      4  CE1 HIS A   1     -11.323   6.274  48.995  0.00  0.00    +0.199 A 
ATOM      5  NE2 HIS A   1     -12.264   5.344  48.936  0.00  0.00    -0.221 NA
ATOM      6  CD2 HIS A   1     -13.494   5.954  48.954  0.00  0.00    +0.115 A 
ENDBRANCH   1   2
BRANCH   1   7
ATOM      7  CA  HIS A   1     -14.279   9.189  50.393  0.00  0.00    +0.139 C 
BRANCH   7   8
ATOM      8  N   HIS A   1     -15.453  10.040  50.405  0.00  0.00    -0.239 NA
ATOM      9  H   HIS A   1     -16.059  10.074  49.561  0.00  0.00    +0.142 HD
ENDBRANCH   7   8
BRANCH   7  10
ATOM     10  C   HIS A   1     -13.049  10.086  50.558  0.00  0.00    +0.224 C 
ATOM     11  O   HIS A   1     -12.992  11.167  50.000  0.00  0.00    -0.287 OA
ENDBRANCH   7  10
ENDBRANCH   1   7
TORSDOF 4
REMARK  Name = ../refined-set-2016/4ido/4ido_pocket.pdb
REMARK  244 active torsions:
REMARK  status: ('A' for Active; 'I' for Inactive)
REMARK    1  A    between atoms: _1  and  _3
REMARK    2  A    between atoms: _3  and  _4
REMARK    3  A    between atoms: _3  and  _6
REMARK    4  A    between atoms: _9  and  _11
REMARK    5  A    between atoms: _11  and  _12
REMARK    6  A    between atoms: _15  and  _17
REMARK    7  A    between atoms: _17  and  _18
REMARK    8  A    between atoms: _20  and  _22
REMARK    9  A    between atoms: _22  and  _23
REMARK   10  A    between atoms: _26  and  _28
REMARK   11  A    between atoms: _28  and  _29
REMARK   12  A    between atoms: _28  and  _31
REMARK   13  A    between atoms: _31  and  _32
REMARK   14  A    between atoms: _38  and  _40
REMARK   15  A    between atoms: _40  and  _41
REMARK   16  A    between atoms: _40  and  _43
REMARK   17  A    between atoms: _43  and  _44
REMARK   18  A    between atoms: _44  and  _45
REMARK   19  A    between atoms: _45  and  _46
REMARK   20  A    between atoms: _55  and  _57
REMARK   21  A    between atoms: _57  and  _58
REMARK   22  A    between atoms: _57  and  _60
REMARK   23  A    between atoms: _60  and  _61
REMARK   24  A    between atoms: _61  and  _62
REMARK   25  A    between atoms: _62  and  _63
REMARK   26  A    between atoms: _63  and  _64
REMARK   27  A    between atoms: _68  and  _70
REMARK   28  A    between atoms: _70  and  _71
REMARK   29  A    between atoms: _73  and  _75
REMARK   30  A    between atoms: _75  and  _76
REMARK   31  A    between atoms: _75  and  _78
REMARK   32  A    between atoms: _78  and  _79
REMARK   33  A    between atoms: _79  and  _80
REMARK   34  A    between atoms: _80  and  _81
REMARK   35  A    between atoms: _81  and  _82
REMARK   36  A    between atoms: _86  and  _88
REMARK   37  A    between atoms: _88  and  _89
REMARK   38  A    between atoms: _88  and  _91
REMARK   39  A    between atoms: _91  and  _92
REMARK   40  A    between atoms: _94  and  _96
REMARK   41  A    between atoms: _96  and  _97
REMARK   42  A    between atoms: _96  and  _99
REMARK   43  A    between atoms: _99  and  _100
REMARK   44  A    between atoms: _106  and  _108
REMARK   45  A    between atoms: _108  and  _109
REMARK   46  A    between atoms: _108  and  _111
REMARK   47  A    between atoms: _111  and  _112
REMARK   48  A    between atoms: _115  and  _117
REMARK   49  A    between atoms: _117  and  _118
REMARK   50  A    between atoms: _117  and  _120
REMARK   51  A    between atoms: _120  and  _121
REMARK   52  A    between atoms: _121  and  _122
REMARK   53  A    between atoms: _124  and  _126
REMARK   54  A    between atoms: _126  and  _127
REMARK   55  A    between atoms: _126  and  _129
REMARK   56  A    between atoms: _129  and  _130
REMARK   57  A    between atoms: _133  and  _135
REMARK   58  A    between atoms: _135  and  _136
REMARK   59  A    between atoms: _135  and  _138
REMARK   60  A    between atoms: _138  and  _139
REMARK   61  A    between atoms: _145  and  _147
REMARK   62  A    between atoms: _147  and  _148
REMARK   63  A    between atoms: _147  and  _150
REMARK   64  A    between atoms: _150  and  _151
REMARK   65  A    between atoms: _154  and  _156
REMARK   66  A    between atoms: _156  and  _157
REMARK   67  A    between atoms: _156  and  _159
REMARK   68  A    between atoms: _159  and  _160
REMARK   69  A    between atoms: _166  and  _168
REMARK   70  A    between atoms: _168  and  _169
REMARK   71  A    between atoms: _168  and  _171
REMARK   72  A    between atoms: _171  and  _172
REMARK   73  A    between atoms: _174  and  _176
REMARK   74  A    between atoms: _176  and  _177
REMARK   75  A    between atoms: _176  and  _179
REMARK   76  A    between atoms: _179  and  _180
REMARK   77  A    between atoms: _190  and  _192
REMARK   78  A    between atoms: _192  and  _193
REMARK   79  A    between atoms: _192  and  _195
REMARK   80  A    between atoms: _195  and  _196
REMARK   81  A    between atoms: _196  and  _197
REMARK   82  A    between atoms: _197  and  _198
REMARK   83  A    between atoms: _207  and  _209
REMARK   84  A    between atoms: _209  and  _210
REMARK   85  A    between atoms: _212  and  _214
REMARK   86  A    between atoms: _214  and  _215
REMARK   87  A    between atoms: _217  and  _219
REMARK   88  A    between atoms: _219  and  _220
REMARK   89  A    between atoms: _219  and  _222
REMARK   90  A    between atoms: _222  and  _223
REMARK   91  A    between atoms: _223  and  _224
REMARK   92  A    between atoms: _227  and  _229
REMARK   93  A    between atoms: _229  and  _230
REMARK   94  A    between atoms: _229  and  _232
REMARK   95  A    between atoms: _232  and  _233
REMARK   96  A    between atoms: _233  and  _234
REMARK   97  A    between atoms: _234  and  _235
REMARK   98  A    between atoms: _244  and  _246
REMARK   99  A    between atoms: _246  and  _247
REMARK  100  A    between atoms: _246  and  _249
REMARK  101  A    between atoms: _249  and  _250
REMARK  102  A    between atoms: _250  and  _251
REMARK  103  A    between atoms: _254  and  _256
REMARK  104  A    between atoms: _256  and  _257
REMARK  105  A    between atoms: _256  and  _259
REMARK  106  A    between atoms: _259  and  _260
REMARK  107  A    between atoms: _263  and  _265
REMARK  108  A    between atoms: _265  and  _266
REMARK  109  A    between atoms: _265  and  _268
REMARK  110  A    between atoms: _268  and  _269
REMARK  111  A    between atoms: _272  and  _274
REMARK  112  A    between atoms: _274  and  _275
REMARK  113  A    between atoms: _274  and  _277
REMARK  114  A    between atoms: _277  and  _278
REMARK  115  A    between atoms: _281  and  _283
REMARK  116  A    between atoms: _283  and  _284
REMARK  117  A    between atoms: _283  and  _286
REMARK  118  A    between atoms: _286  and  _287
REMARK  119  A    between atoms: _287  and  _288
REMARK  120  A    between atoms: _293  and  _295
REMARK  121  A    between atoms: _295  and  _296
REMARK  122  A    between atoms: _298  and  _300
REMARK  123  A    between atoms: _300  and  _301
REMARK  124  A    between atoms: _300  and  _303
REMARK  125  A    between atoms: _303  and  _304
REMARK  126  A    between atoms: _307  and  _309
REMARK  127  A    between atoms: _309  and  _310
REMARK  128  A    between atoms: _309  and  _312
REMARK  129  A    between atoms: _312  and  _313
REMARK  130  A    between atoms: _318  and  _320
REMARK  131  A    between atoms: _320  and  _321
REMARK  132  A    between atoms: _320  and  _323
REMARK  133  A    between atoms: _323  and  _324
REMARK  134  A    between atoms: _327  and  _329
REMARK  135  A    between atoms: _329  and  _330
REMARK  136  A    between atoms: _329  and  _332
REMARK  137  A    between atoms: _332  and  _333
REMARK  138  A    between atoms: _335  and  _337
REMARK  139  A    between atoms: _337  and  _338
REMARK  140  A    between atoms: _337  and  _340
REMARK  141  A    between atoms: _340  and  _341
REMARK  142  A    between atoms: _341  and  _342
REMARK  143  A    between atoms: _347  and  _349
REMARK  144  A    between atoms: _349  and  _350
REMARK  145  A    between atoms: _349  and  _352
REMARK  146  A    between atoms: _352  and  _353
REMARK  147  A    between atoms: _356  and  _358
REMARK  148  A    between atoms: _358  and  _359
REMARK  149  A    between atoms: _358  and  _361
REMARK  150  A    between atoms: _364  and  _366
REMARK  151  A    between atoms: _366  and  _367
REMARK  152  A    between atoms: _366  and  _369
REMARK  153  A    between atoms: _369  and  _370
REMARK  154  A    between atoms: _370  and  _371
REMARK  155  A    between atoms: _371  and  _372
REMARK  156  A    between atoms: _381  and  _383
REMARK  157  A    between atoms: _383  and  _384
REMARK  158  A    between atoms: _383  and  _386
REMARK  159  A    between atoms: _386  and  _387
REMARK  160  A    between atoms: _390  and  _392
REMARK  161  A    between atoms: _392  and  _393
REMARK  162  A    between atoms: _392  and  _395
REMARK  163  A    between atoms: _395  and  _396
REMARK  164  A    between atoms: _406  and  _408
REMARK  165  A    between atoms: _408  and  _409
REMARK  166  A    between atoms: _408  and  _411
REMARK  167  A    between atoms: _411  and  _412
REMARK  168  A    between atoms: _416  and  _417
REMARK  169  A    between atoms: _422  and  _424
REMARK  170  A    between atoms: _424  and  _425
REMARK  171  A    between atoms: _424  and  _427
REMARK  172  A    between atoms: _427  and  _428
REMARK  173  A    between atoms: _434  and  _435
REMARK  174  A    between atoms: _440  and  _442
REMARK  175  A    between atoms: _442  and  _443
REMARK  176  A    between atoms: _445  and  _447
REMARK  177  A    between atoms: _447  and  _448
REMARK  178  A    between atoms: _447  and  _450
REMARK  179  A    between atoms: _450  and  _451
REMARK  180  A    between atoms: _454  and  _456
REMARK  181  A    between atoms: _456  and  _457
REMARK  182  A    between atoms: _456  and  _459
REMARK  183  A    between atoms: _459  and  _460
REMARK  184  A    between atoms: _460  and  _461
REMARK  185  A    between atoms: _461  and  _462
REMARK  186  A    between atoms: _462  and  _463
REMARK  187  A    between atoms: _467  and  _469
REMARK  188  A    between atoms: _469  and  _470
REMARK  189  A    between atoms: _469  and  _472
REMARK  190  A    between atoms: _475  and  _477
REMARK  191  A    between atoms: _477  and  _478
REMARK  192  A    between atoms: _481  and  _483
REMARK  193  A    between atoms: _483  and  _484
REMARK  194  A    between atoms: _483  and  _486
REMARK  195  A    between atoms: _486  and  _487
REMARK  196  A    between atoms: _490  and  _492
REMARK  197  A    between atoms: _492  and  _493
REMARK  198  A    between atoms: _492  and  _495
REMARK  199  A    between atoms: _495  and  _496
REMARK  200  A    between atoms: _502  and  _503
REMARK  201  A    between atoms: _508  and  _510
REMARK  202  A    between atoms: _510  and  _511
REMARK  203  A    between atoms: _510  and  _513
REMARK  204  A    between atoms: _513  and  _514
REMARK  205  A    between atoms: _520  and  _522
REMARK  206  A    between atoms: _522  and  _523
REMARK  207  A    between atoms: _522  and  _525
REMARK  208  A    between atoms: _525  and  _526
REMARK  209  A    between atoms: _529  and  _531
REMARK  210  A    between atoms: _531  and  _532
REMARK  211  A    between atoms: _534  and  _536
REMARK  212  A    between atoms: _536  and  _537
REMARK  213  A    between atoms: _536  and  _539
REMARK  214  A    between atoms: _539  and  _540
REMARK  215  A    between atoms: _543  and  _545
REMARK  216  A    between atoms: _545  and  _546
REMARK  217  A    between atoms: _545  and  _548
REMARK  218  A    between atoms: _548  and  _549
REMARK  219  A    between atoms: _555  and  _557
REMARK  220  A    between atoms: _557  and  _558
REMARK  221  A    between atoms: _557  and  _560
REMARK  222  A    between atoms: _560  and  _561
REMARK  223  A    between atoms: _561  and  _562
REMARK  224  A    between atoms: _567  and  _569
REMARK  225  A    between atoms: _569  and  _570
REMARK  226  A    between atoms: _569  and  _572
REMARK  227  A    between atoms: _572  and  _573
REMARK  228  A    between atoms: _576  and  _578
REMARK  229  A    between atoms: _578  and  _579
REMARK  230  A    between atoms: _578  and  _581
REMARK  231  A    between atoms: _581  and  _582
REMARK  232  A    between atoms: _584  and  _586
REMARK  233  A    between atoms: _586  and  _587
REMARK  234  A    between atoms: _586  and  _589
REMARK  235  A    between atoms: _589  and  _590
REMARK  236  A    between atoms: _596  and  _598
REMARK  237  A    between atoms: _598  and  _599
REMARK  238  A    between atoms: _598  and  _601
REMARK  239  A    between atoms: _601  and  _602
REMARK  240  A    between atoms: _607  and  _608
REMARK  241  A    between atoms: _610  and  _612
REMARK  242  A    between atoms: _612  and  _613
REMARK  243  A    between atoms: _612  and  _615
REMARK  244  A    between atoms: _615  and  _616
REMARK                            x       y       z     vdW  Elec       q    Type
REMARK                         _______ _______ _______ _____ _____    ______ ____
ROOT
ATOM      1 MG   UNL     1     -27.820  -5.030  40.234  0.00  0.00    +0.000 Mg
ATOM      2  O   UNL     1     -27.412  -7.059  40.587  0.00  0.00    +0.000 OA
ATOM      3  O   UNL     1     -28.134  -3.158  39.576  0.00  0.00    +0.000 OA
ENDROOT
TORSDOF 0
REMARK  Name = ../refined-set-2016/4ido/4ido_pocket.pdb
REMARK  244 active torsions:
REMARK  status: ('A' for Active; 'I' for Inactive)
REMARK    1  A    between atoms: _1  and  _3
REMARK    2  A    between atoms: _3  and  _4
REMARK    3  A    between atoms: _3  and  _6
REMARK    4  A    between atoms: _9  and  _11
REMARK    5  A    between atoms: _11  and  _12
REMARK    6  A    between atoms: _15  and  _17
REMARK    7  A    between atoms: _17  and  _18
REMARK    8  A    between atoms: _20  and  _22
REMARK    9  A    between atoms: _22  and  _23
REMARK   10  A    between atoms: _26  and  _28
REMARK   11  A    between atoms: _28  and  _29
REMARK   12  A    between atoms: _28  and  _31
REMARK   13  A    between atoms: _31  and  _32
REMARK   14  A    between atoms: _38  and  _40
REMARK   15  A    between atoms: _40  and  _41
REMARK   16  A    between atoms: _40  and  _43
REMARK   17  A    between atoms: _43  and  _44
REMARK   18  A    between atoms: _44  and  _45
REMARK   19  A    between atoms: _45  and  _46
REMARK   20  A    between atoms: _55  and  _57
REMARK   21  A    between atoms: _57  and  _58
REMARK   22  A    between atoms: _57  and  _60
REMARK   23  A    between atoms: _60  and  _61
REMARK   24  A    between atoms: _61  and  _62
REMARK   25  A    between atoms: _62  and  _63
REMARK   26  A    between atoms: _63  and  _64
REMARK   27  A    between atoms: _68  and  _70
REMARK   28  A    between atoms: _70  and  _71
REMARK   29  A    between atoms: _73  and  _75
REMARK   30  A    between atoms: _75  and  _76
REMARK   31  A    between atoms: _75  and  _78
REMARK   32  A    between atoms: _78  and  _79
REMARK   33  A    between atoms: _79  and  _80
REMARK   34  A    between atoms: _80  and  _81
REMARK   35  A    between atoms: _81  and  _82
REMARK   36  A    between atoms: _86  and  _88
REMARK   37  A    between atoms: _88  and  _89
REMARK   38  A    between atoms: _88  and  _91
REMARK   39  A    between atoms: _91  and  _92
REMARK   40  A    between atoms: _94  and  _96
REMARK   41  A    between atoms: _96  and  _97
REMARK   42  A    between atoms: _96  and  _99
REMARK   43  A    between atoms: _99  and  _100
REMARK   44  A    between atoms: _106  and  _108
REMARK   45  A    between atoms: _108  and  _109
REMARK   46  A    between atoms: _108  and  _111
REMARK   47  A    between atoms: _111  and  _112
REMARK   48  A    between atoms: _115  and  _117
REMARK   49  A    between atoms: _117  and  _118
REMARK   50  A    between atoms: _117  and  _120
REMARK   51  A    between atoms: _120  and  _121
REMARK   52  A    between atoms: _121  and  _122
REMARK   53  A    between atoms: _124  and  _126
REMARK   54  A    between atoms: _126  and  _127
REMARK   55  A    between atoms: _126  and  _129
REMARK   56  A    between atoms: _129  and  _130
REMARK   57  A    between atoms: _133  and  _135
REMARK   58  A    between atoms: _135  and  _136
REMARK   59  A    between atoms: _135  and  _138
REMARK   60  A    between atoms: _138  and  _139
REMARK   61  A    between atoms: _145  and  _147
REMARK   62  A    between atoms: _147  and  _148
REMARK   63  A    between atoms: _147  and  _150
REMARK   64  A    between atoms: _150  and  _151
REMARK   65  A    between atoms: _154  and  _156
REMARK   66  A    between atoms: _156  and  _157
REMARK   67  A    between atoms: _156  and  _159
REMARK   68  A    between atoms: _159  and  _160
REMARK   69  A    between atoms: _166  and  _168
REMARK   70  A    between atoms: _168  and  _169
REMARK   71  A    between atoms: _168  and  _171
REMARK   72  A    between atoms: _171  and  _172
REMARK   73  A    between atoms: _174  and  _176
REMARK   74  A    between atoms: _176  and  _177
REMARK   75  A    between atoms: _176  and  _179
REMARK   76  A    between atoms: _179  and  _180
REMARK   77  A    between atoms: _190  and  _192
REMARK   78  A    between atoms: _192  and  _193
REMARK   79  A    between atoms: _192  and  _195
REMARK   80  A    between atoms: _195  and  _196
REMARK   81  A    between atoms: _196  and  _197
REMARK   82  A    between atoms: _197  and  _198
REMARK   83  A    between atoms: _207  and  _209
REMARK   84  A    between atoms: _209  and  _210
REMARK   85  A    between atoms: _212  and  _214
REMARK   86  A    between atoms: _214  and  _215
REMARK   87  A    between atoms: _217  and  _219
REMARK   88  A    between atoms: _219  and  _220
REMARK   89  A    between atoms: _219  and  _222
REMARK   90  A    between atoms: _222  and  _223
REMARK   91  A    between atoms: _223  and  _224
REMARK   92  A    between atoms: _227  and  _229
REMARK   93  A    between atoms: _229  and  _230
REMARK   94  A    between atoms: _229  and  _232
REMARK   95  A    between atoms: _232  and  _233
REMARK   96  A    between atoms: _233  and  _234
REMARK   97  A    between atoms: _234  and  _235
REMARK   98  A    between atoms: _244  and  _246
REMARK   99  A    between atoms: _246  and  _247
REMARK  100  A    between atoms: _246  and  _249
REMARK  101  A    between atoms: _249  and  _250
REMARK  102  A    between atoms: _250  and  _251
REMARK  103  A    between atoms: _254  and  _256
REMARK  104  A    between atoms: _256  and  _257
REMARK  105  A    between atoms: _256  and  _259
REMARK  106  A    between atoms: _259  and  _260
REMARK  107  A    between atoms: _263  and  _265
REMARK  108  A    between atoms: _265  and  _266
REMARK  109  A    between atoms: _265  and  _268
REMARK  110  A    between atoms: _268  and  _269
REMARK  111  A    between atoms: _272  and  _274
REMARK  112  A    between atoms: _274  and  _275
REMARK  113  A    between atoms: _274  and  _277
REMARK  114  A    between atoms: _277  and  _278
REMARK  115  A    between atoms: _281  and  _283
REMARK  116  A    between atoms: _283  and  _284
REMARK  117  A    between atoms: _283  and  _286
REMARK  118  A    between atoms: _286  and  _287
REMARK  119  A    between atoms: _287  and  _288
REMARK  120  A    between atoms: _293  and  _295
REMARK  121  A    between atoms: _295  and  _296
REMARK  122  A    between atoms: _298  and  _300
REMARK  123  A    between atoms: _300  and  _301
REMARK  124  A    between atoms: _300  and  _303
REMARK  125  A    between atoms: _303  and  _304
REMARK  126  A    between atoms: _307  and  _309
REMARK  127  A    between atoms: _309  and  _310
REMARK  128  A    between atoms: _309  and  _312
REMARK  129  A    between atoms: _312  and  _313
REMARK  130  A    between atoms: _318  and  _320
REMARK  131  A    between atoms: _320  and  _321
REMARK  132  A    between atoms: _320  and  _323
REMARK  133  A    between atoms: _323  and  _324
REMARK  134  A    between atoms: _327  and  _329
REMARK  135  A    between atoms: _329  and  _330
REMARK  136  A    between atoms: _329  and  _332
REMARK  137  A    between atoms: _332  and  _333
REMARK  138  A    between atoms: _335  and  _337
REMARK  139  A    between atoms: _337  and  _338
REMARK  140  A    between atoms: _337  and  _340
REMARK  141  A    between atoms: _340  and  _341
REMARK  142  A    between atoms: _341  and  _342
REMARK  143  A    between atoms: _347  and  _349
REMARK  144  A    between atoms: _349  and  _350
REMARK  145  A    between atoms: _349  and  _352
REMARK  146  A    between atoms: _352  and  _353
REMARK  147  A    between atoms: _356  and  _358
REMARK  148  A    between atoms: _358  and  _359
REMARK  149  A    between atoms: _358  and  _361
REMARK  150  A    between atoms: _364  and  _366
REMARK  151  A    between atoms: _366  and  _367
REMARK  152  A    between atoms: _366  and  _369
REMARK  153  A    between atoms: _369  and  _370
REMARK  154  A    between atoms: _370  and  _371
REMARK  155  A    between atoms: _371  and  _372
REMARK  156  A    between atoms: _381  and  _383
REMARK  157  A    between atoms: _383  and  _384
REMARK  158  A    between atoms: _383  and  _386
REMARK  159  A    between atoms: _386  and  _387
REMARK  160  A    between atoms: _390  and  _392
REMARK  161  A    between atoms: _392  and  _393
REMARK  162  A    between atoms: _392  and  _395
REMARK  163  A    between atoms: _395  and  _396
REMARK  164  A    between atoms: _406  and  _408
REMARK  165  A    between atoms: _408  and  _409
REMARK  166  A    between atoms: _408  and  _411
REMARK  167  A    between atoms: _411  and  _412
REMARK  168  A    between atoms: _416  and  _417
REMARK  169  A    between atoms: _422  and  _424
REMARK  170  A    between atoms: _424  and  _425
REMARK  171  A    between atoms: _424  and  _427
REMARK  172  A    between atoms: _427  and  _428
REMARK  173  A    between atoms: _434  and  _435
REMARK  174  A    between atoms: _440  and  _442
REMARK  175  A    between atoms: _442  and  _443
REMARK  176  A    between atoms: _445  and  _447
REMARK  177  A    between atoms: _447  and  _448
REMARK  178  A    between atoms: _447  and  _450
REMARK  179  A    between atoms: _450  and  _451
REMARK  180  A    between atoms: _454  and  _456
REMARK  181  A    between atoms: _456  and  _457
REMARK  182  A    between atoms: _456  and  _459
REMARK  183  A    between atoms: _459  and  _460
REMARK  184  A    between atoms: _460  and  _461
REMARK  185  A    between atoms: _461  and  _462
REMARK  186  A    between atoms: _462  and  _463
REMARK  187  A    between atoms: _467  and  _469
REMARK  188  A    between atoms: _469  and  _470
REMARK  189  A    between atoms: _469  and  _472
REMARK  190  A    between atoms: _475  and  _477
REMARK  191  A    between atoms: _477  and  _478
REMARK  192  A    between atoms: _481  and  _483
REMARK  193  A    between atoms: _483  and  _484
REMARK  194  A    between atoms: _483  and  _486
REMARK  195  A    between atoms: _486  and  _487
REMARK  196  A    between atoms: _490  and  _492
REMARK  197  A    between atoms: _492  and  _493
REMARK  198  A    between atoms: _492  and  _495
REMARK  199  A    between atoms: _495  and  _496
REMARK  200  A    between atoms: _502  and  _503
REMARK  201  A    between atoms: _508  and  _510
REMARK  202  A    between atoms: _510  and  _511
REMARK  203  A    between atoms: _510  and  _513
REMARK  204  A    between atoms: _513  and  _514
REMARK  205  A    between atoms: _520  and  _522
REMARK  206  A    between atoms: _522  and  _523
REMARK  207  A    between atoms: _522  and  _525
REMARK  208  A    between atoms: _525  and  _526
REMARK  209  A    between atoms: _529  and  _531
REMARK  210  A    between atoms: _531  and  _532
REMARK  211  A    between atoms: _534  and  _536
REMARK  212  A    between atoms: _536  and  _537
REMARK  213  A    between atoms: _536  and  _539
REMARK  214  A    between atoms: _539  and  _540
REMARK  215  A    between atoms: _543  and  _545
REMARK  216  A    between atoms: _545  and  _546
REMARK  217  A    between atoms: _545  and  _548
REMARK  218  A    between atoms: _548  and  _549
REMARK  219  A    between atoms: _555  and  _557
REMARK  220  A    between atoms: _557  and  _558
REMARK  221  A    between atoms: _557  and  _560
REMARK  222  A    between atoms: _560  and  _561
REMARK  223  A    between atoms: _561  and  _562
REMARK  224  A    between atoms: _567  and  _569
REMARK  225  A    between atoms: _569  and  _570
REMARK  226  A    between atoms: _569  and  _572
REMARK  227  A    between atoms: _572  and  _573
REMARK  228  A    between atoms: _576  and  _578
REMARK  229  A    between atoms: _578  and  _579
REMARK  230  A    between atoms: _578  and  _581
REMARK  231  A    between atoms: _581  and  _582
REMARK  232  A    between atoms: _584  and  _586
REMARK  233  A    between atoms: _586  and  _587
REMARK  234  A    between atoms: _586  and  _589
REMARK  235  A    between atoms: _589  and  _590
REMARK  236  A    between atoms: _596  and  _598
REMARK  237  A    between atoms: _598  and  _599
REMARK  238  A    between atoms: _598  and  _601
REMARK  239  A    between atoms: _601  and  _602
REMARK  240  A    between atoms: _607  and  _608
REMARK  241  A    between atoms: _610  and  _612
REMARK  242  A    between atoms: _612  and  _613
REMARK  243  A    between atoms: _612  and  _615
REMARK  244  A    between atoms: _615  and  _616
REMARK                            x       y       z     vdW  Elec       q    Type
REMARK                         _______ _______ _______ _____ _____    ______ ____
ROOT
ATOM      1  O   HOH     1     -18.625  -1.777  45.043  0.00  0.00    +0.000 OA
ENDROOT
TORSDOF 0
REMARK  Name = ../refined-set-2016/4ido/4ido_pocket.pdb
REMARK  244 active torsions:
REMARK  status: ('A' for Active; 'I' for Inactive)
REMARK    1  A    between atoms: _1  and  _3
REMARK    2  A    between atoms: _3  and  _4
REMARK    3  A    between atoms: _3  and  _6
REMARK    4  A    between atoms: _9  and  _11
REMARK    5  A    between atoms: _11  and  _12
REMARK    6  A    between atoms: _15  and  _17
REMARK    7  A    between atoms: _17  and  _18
REMARK    8  A    between atoms: _20  and  _22
REMARK    9  A    between atoms: _22  and  _23
REMARK   10  A    between atoms: _26  and  _28
REMARK   11  A    between atoms: _28  and  _29
REMARK   12  A    between atoms: _28  and  _31
REMARK   13  A    between atoms: _31  and  _32
REMARK   14  A    between atoms: _38  and  _40
REMARK   15  A    between atoms: _40  and  _41
REMARK   16  A    between atoms: _40  and  _43
REMARK   17  A    between atoms: _43  and  _44
REMARK   18  A    between atoms: _44  and  _45
REMARK   19  A    between atoms: _45  and  _46
REMARK   20  A    between atoms: _55  and  _57
REMARK   21  A    between atoms: _57  and  _58
REMARK   22  A    between atoms: _57  and  _60
REMARK   23  A    between atoms: _60  and  _61
REMARK   24  A    between atoms: _61  and  _62
REMARK   25  A    between atoms: _62  and  _63
REMARK   26  A    between atoms: _63  and  _64
REMARK   27  A    between atoms: _68  and  _70
REMARK   28  A    between atoms: _70  and  _71
REMARK   29  A    between atoms: _73  and  _75
REMARK   30  A    between atoms: _75  and  _76
REMARK   31  A    between atoms: _75  and  _78
REMARK   32  A    between atoms: _78  and  _79
REMARK   33  A    between atoms: _79  and  _80
REMARK   34  A    between atoms: _80  and  _81
REMARK   35  A    between atoms: _81  and  _82
REMARK   36  A    between atoms: _86  and  _88
REMARK   37  A    between atoms: _88  and  _89
REMARK   38  A    between atoms: _88  and  _91
REMARK   39  A    between atoms: _91  and  _92
REMARK   40  A    between atoms: _94  and  _96
REMARK   41  A    between atoms: _96  and  _97
REMARK   42  A    between atoms: _96  and  _99
REMARK   43  A    between atoms: _99  and  _100
REMARK   44  A    between atoms: _106  and  _108
REMARK   45  A    between atoms: _108  and  _109
REMARK   46  A    between atoms: _108  and  _111
REMARK   47  A    between atoms: _111  and  _112
REMARK   48  A    between atoms: _115  and  _117
REMARK   49  A    between atoms: _117  and  _118
REMARK   50  A    between atoms: _117  and  _120
REMARK   51  A    between atoms: _120  and  _121
REMARK   52  A    between atoms: _121  and  _122
REMARK   53  A    between atoms: _124  and  _126
REMARK   54  A    between atoms: _126  and  _127
REMARK   55  A    between atoms: _126  and  _129
REMARK   56  A    between atoms: _129  and  _130
REMARK   57  A    between atoms: _133  and  _135
REMARK   58  A    between atoms: _135  and  _136
REMARK   59  A    between atoms: _135  and  _138
REMARK   60  A    between atoms: _138  and  _139
REMARK   61  A    between atoms: _145  and  _147
REMARK   62  A    between atoms: _147  and  _148
REMARK   63  A    between atoms: _147  and  _150
REMARK   64  A    between atoms: _150  and  _151
REMARK   65  A    between atoms: _154  and  _156
REMARK   66  A    between atoms: _156  and  _157
REMARK   67  A    between atoms: _156  and  _159
REMARK   68  A    between atoms: _159  and  _160
REMARK   69  A    between atoms: _166  and  _168
REMARK   70  A    between atoms: _168  and  _169
REMARK   71  A    between atoms: _168  and  _171
REMARK   72  A    between atoms: _171  and  _172
REMARK   73  A    between atoms: _174  and  _176
REMARK   74  A    between atoms: _176  and  _177
REMARK   75  A    between atoms: _176  and  _179
REMARK   76  A    between atoms: _179  and  _180
REMARK   77  A    between atoms: _190  and  _192
REMARK   78  A    between atoms: _192  and  _193
REMARK   79  A    between atoms: _192  and  _195
REMARK   80  A    between atoms: _195  and  _196
REMARK   81  A    between atoms: _196  and  _197
REMARK   82  A    between atoms: _197  and  _198
REMARK   83  A    between atoms: _207  and  _209
REMARK   84  A    between atoms: _209  and  _210
REMARK   85  A    between atoms: _212  and  _214
REMARK   86  A    between atoms: _214  and  _215
REMARK   87  A    between atoms: _217  and  _219
REMARK   88  A    between atoms: _219  and  _220
REMARK   89  A    between atoms: _219  and  _222
REMARK   90  A    between atoms: _222  and  _223
REMARK   91  A    between atoms: _223  and  _224
REMARK   92  A    between atoms: _227  and  _229
REMARK   93  A    between atoms: _229  and  _230
REMARK   94  A    between atoms: _229  and  _232
REMARK   95  A    between atoms: _232  and  _233
REMARK   96  A    between atoms: _233  and  _234
REMARK   97  A    between atoms: _234  and  _235
REMARK   98  A    between atoms: _244  and  _246
REMARK   99  A    between atoms: _246  and  _247
REMARK  100  A    between atoms: _246  and  _249
REMARK  101  A    between atoms: _249  and  _250
REMARK  102  A    between atoms: _250  and  _251
REMARK  103  A    between atoms: _254  and  _256
REMARK  104  A    between atoms: _256  and  _257
REMARK  105  A    between atoms: _256  and  _259
REMARK  106  A    between atoms: _259  and  _260
REMARK  107  A    between atoms: _263  and  _265
REMARK  108  A    between atoms: _265  and  _266
REMARK  109  A    between atoms: _265  and  _268
REMARK  110  A    between atoms: _268  and  _269
REMARK  111  A    between atoms: _272  and  _274
REMARK  112  A    between atoms: _274  and  _275
REMARK  113  A    between atoms: _274  and  _277
REMARK  114  A    between atoms: _277  and  _278
REMARK  115  A    between atoms: _281  and  _283
REMARK  116  A    between atoms: _283  and  _284
REMARK  117  A    between atoms: _283  and  _286
REMARK  118  A    between atoms: _286  and  _287
REMARK  119  A    between atoms: _287  and  _288
REMARK  120  A    between atoms: _293  and  _295
REMARK  121  A    between atoms: _295  and  _296
REMARK  122  A    between atoms: _298  and  _300
REMARK  123  A    between atoms: _300  and  _301
REMARK  124  A    between atoms: _300  and  _303
REMARK  125  A    between atoms: _303  and  _304
REMARK  126  A    between atoms: _307  and  _309
REMARK  127  A    between atoms: _309  and  _310
REMARK  128  A    between atoms: _309  and  _312
REMARK  129  A    between atoms: _312  and  _313
REMARK  130  A    between atoms: _318  and  _320
REMARK  131  A    between atoms: _320  and  _321
REMARK  132  A    between atoms: _320  and  _323
REMARK  133  A    between atoms: _323  and  _324
REMARK  134  A    between atoms: _327  and  _329
REMARK  135  A    between atoms: _329  and  _330
REMARK  136  A    between atoms: _329  and  _332
REMARK  137  A    between atoms: _332  and  _333
REMARK  138  A    between atoms: _335  and  _337
REMARK  139  A    between atoms: _337  and  _338
REMARK  140  A    between atoms: _337  and  _340
REMARK  141  A    between atoms: _340  and  _341
REMARK  142  A    between atoms: _341  and  _342
REMARK  143  A    between atoms: _347  and  _349
REMARK  144  A    between atoms: _349  and  _350
REMARK  145  A    between atoms: _349  and  _352
REMARK  146  A    between atoms: _352  and  _353
REMARK  147  A    between atoms: _356  and  _358
REMARK  148  A    between atoms: _358  and  _359
REMARK  149  A    between atoms: _358  and  _361
REMARK  150  A    between atoms: _364  and  _366
REMARK  151  A    between atoms: _366  and  _367
REMARK  152  A    between atoms: _366  and  _369
REMARK  153  A    between atoms: _369  and  _370
REMARK  154  A    between atoms: _370  and  _371
REMARK  155  A    between atoms: _371  and  _372
REMARK  156  A    between atoms: _381  and  _383
REMARK  157  A    between atoms: _383  and  _384
REMARK  158  A    between atoms: _383  and  _386
REMARK  159  A    between atoms: _386  and  _387
REMARK  160  A    between atoms: _390  and  _392
REMARK  161  A    between atoms: _392  and  _393
REMARK  162  A    between atoms: _392  and  _395
REMARK  163  A    between atoms: _395  and  _396
REMARK  164  A    between atoms: _406  and  _408
REMARK  165  A    between atoms: _408  and  _409
REMARK  166  A    between atoms: _408  and  _411
REMARK  167  A    between atoms: _411  and  _412
REMARK  168  A    between atoms: _416  and  _417
REMARK  169  A    between atoms: _422  and  _424
REMARK  170  A    between atoms: _424  and  _425
REMARK  171  A    between atoms: _424  and  _427
REMARK  172  A    between atoms: _427  and  _428
REMARK  173  A    between atoms: _434  and  _435
REMARK  174  A    between atoms: _440  and  _442
REMARK  175  A    between atoms: _442  and  _443
REMARK  176  A    between atoms: _445  and  _447
REMARK  177  A    between atoms: _447  and  _448
REMARK  178  A    between atoms: _447  and  _450
REMARK  179  A    between atoms: _450  and  _451
REMARK  180  A    between atoms: _454  and  _456
REMARK  181  A    between atoms: _456  and  _457
REMARK  182  A    between atoms: _456  and  _459
REMARK  183  A    between atoms: _459  and  _460
REMARK  184  A    between atoms: _460  and  _461
REMARK  185  A    between atoms: _461  and  _462
REMARK  186  A    between atoms: _462  and  _463
REMARK  187  A    between atoms: _467  and  _469
REMARK  188  A    between atoms: _469  and  _470
REMARK  189  A    between atoms: _469  and  _472
REMARK  190  A    between atoms: _475  and  _477
REMARK  191  A    between atoms: _477  and  _478
REMARK  192  A    between atoms: _481  and  _483
REMARK  193  A    between atoms: _483  and  _484
REMARK  194  A    between atoms: _483  and  _486
REMARK  195  A    between atoms: _486  and  _487
REMARK  196  A    between atoms: _490  and  _492
REMARK  197  A    between atoms: _492  and  _493
REMARK  198  A    between atoms: _492  and  _495
REMARK  199  A    between atoms: _495  and  _496
REMARK  200  A    between atoms: _502  and  _503
REMARK  201  A    between atoms: _508  and  _510
REMARK  202  A    between atoms: _510  and  _511
REMARK  203  A    between atoms: _510  and  _513
REMARK  204  A    between atoms: _513  and  _514
REMARK  205  A    between atoms: _520  and  _522
REMARK  206  A    between atoms: _522  and  _523
REMARK  207  A    between atoms: _522  and  _525
REMARK  208  A    between atoms: _525  and  _526
REMARK  209  A    between atoms: _529  and  _531
REMARK  210  A    between atoms: _531  and  _532
REMARK  211  A    between atoms: _534  and  _536
REMARK  212  A    between atoms: _536  and  _537
REMARK  213  A    between atoms: _536  and  _539
REMARK  214  A    between atoms: _539  and  _540
REMARK  215  A    between atoms: _543  and  _545
REMARK  216  A    between atoms: _545  and  _546
REMARK  217  A    between atoms: _545  and  _548
REMARK  218  A    between atoms: _548  and  _549
REMARK  219  A    between atoms: _555  and  _557
REMARK  220  A    between atoms: _557  and  _558
REMARK  221  A    between atoms: _557  and  _560
REMARK  222  A    between atoms: _560  and  _561
REMARK  223  A    between atoms: _561  and  _562
REMARK  224  A    between atoms: _567  and  _569
REMARK  225  A    between atoms: _569  and  _570
REMARK  226  A    between atoms: _569  and  _572
REMARK  227  A    between atoms: _572  and  _573
REMARK  228  A    between atoms: _576  and  _578
REMARK  229  A    between atoms: _578  and  _579
REMARK  230  A    between atoms: _578  and  _581
REMARK  231  A    between atoms: _581  and  _582
REMARK  232  A    between atoms: _584  and  _586
REMARK  233  A    between atoms: _586  and  _587
REMARK  234  A    between atoms: _586  and  _589
REMARK  235  A    between atoms: _589  and  _590
REMARK  236  A    between atoms: _596  and  _598
REMARK  237  A    between atoms: _598  and  _599
REMARK  238  A    between atoms: _598  and  _601
REMARK  239  A    between atoms: _601  and  _602
REMARK  240  A    between atoms: _607  and  _608
REMARK  241  A    between atoms: _610  and  _612
REMARK  242  A    between atoms: _612  and  _613
REMARK  243  A    between atoms: _612  and  _615
REMARK  244  A    between atoms: _615  and  _616
REMARK                            x       y       z     vdW  Elec       q    Type
REMARK                         _______ _______ _______ _____ _____    ______ ____
ROOT
ATOM      1  O   HOH     1     -27.745 -11.101  45.761  0.00  0.00    +0.000 OA
ENDROOT
TORSDOF 0
REMARK  Name = ../refined-set-2016/4ido/4ido_pocket.pdb
REMARK  244 active torsions:
REMARK  status: ('A' for Active; 'I' for Inactive)
REMARK    1  A    between atoms: _1  and  _3
REMARK    2  A    between atoms: _3  and  _4
REMARK    3  A    between atoms: _3  and  _6
REMARK    4  A    between atoms: _9  and  _11
REMARK    5  A    between atoms: _11  and  _12
REMARK    6  A    between atoms: _15  and  _17
REMARK    7  A    between atoms: _17  and  _18
REMARK    8  A    between atoms: _20  and  _22
REMARK    9  A    between atoms: _22  and  _23
REMARK   10  A    between atoms: _26  and  _28
REMARK   11  A    between atoms: _28  and  _29
REMARK   12  A    between atoms: _28  and  _31
REMARK   13  A    between atoms: _31  and  _32
REMARK   14  A    between atoms: _38  and  _40
REMARK   15  A    between atoms: _40  and  _41
REMARK   16  A    between atoms: _40  and  _43
REMARK   17  A    between atoms: _43  and  _44
REMARK   18  A    between atoms: _44  and  _45
REMARK   19  A    between atoms: _45  and  _46
REMARK   20  A    between atoms: _55  and  _57
REMARK   21  A    between atoms: _57  and  _58
REMARK   22  A    between atoms: _57  and  _60
REMARK   23  A    between atoms: _60  and  _61
REMARK   24  A    between atoms: _61  and  _62
REMARK   25  A    between atoms: _62  and  _63
REMARK   26  A    between atoms: _63  and  _64
REMARK   27  A    between atoms: _68  and  _70
REMARK   28  A    between atoms: _70  and  _71
REMARK   29  A    between atoms: _73  and  _75
REMARK   30  A    between atoms: _75  and  _76
REMARK   31  A    between atoms: _75  and  _78
REMARK   32  A    between atoms: _78  and  _79
REMARK   33  A    between atoms: _79  and  _80
REMARK   34  A    between atoms: _80  and  _81
REMARK   35  A    between atoms: _81  and  _82
REMARK   36  A    between atoms: _86  and  _88
REMARK   37  A    between atoms: _88  and  _89
REMARK   38  A    between atoms: _88  and  _91
REMARK   39  A    between atoms: _91  and  _92
REMARK   40  A    between atoms: _94  and  _96
REMARK   41  A    between atoms: _96  and  _97
REMARK   42  A    between atoms: _96  and  _99
REMARK   43  A    between atoms: _99  and  _100
REMARK   44  A    between atoms: _106  and  _108
REMARK   45  A    between atoms: _108  and  _109
REMARK   46  A    between atoms: _108  and  _111
REMARK   47  A    between atoms: _111  and  _112
REMARK   48  A    between atoms: _115  and  _117
REMARK   49  A    between atoms: _117  and  _118
REMARK   50  A    between atoms: _117  and  _120
REMARK   51  A    between atoms: _120  and  _121
REMARK   52  A    between atoms: _121  and  _122
REMARK   53  A    between atoms: _124  and  _126
REMARK   54  A    between atoms: _126  and  _127
REMARK   55  A    between atoms: _126  and  _129
REMARK   56  A    between atoms: _129  and  _130
REMARK   57  A    between atoms: _133  and  _135
REMARK   58  A    between atoms: _135  and  _136
REMARK   59  A    between atoms: _135  and  _138
REMARK   60  A    between atoms: _138  and  _139
REMARK   61  A    between atoms: _145  and  _147
REMARK   62  A    between atoms: _147  and  _148
REMARK   63  A    between atoms: _147  and  _150
REMARK   64  A    between atoms: _150  and  _151
REMARK   65  A    between atoms: _154  and  _156
REMARK   66  A    between atoms: _156  and  _157
REMARK   67  A    between atoms: _156  and  _159
REMARK   68  A    between atoms: _159  and  _160
REMARK   69  A    between atoms: _166  and  _168
REMARK   70  A    between atoms: _168  and  _169
REMARK   71  A    between atoms: _168  and  _171
REMARK   72  A    between atoms: _171  and  _172
REMARK   73  A    between atoms: _174  and  _176
REMARK   74  A    between atoms: _176  and  _177
REMARK   75  A    between atoms: _176  and  _179
REMARK   76  A    between atoms: _179  and  _180
REMARK   77  A    between atoms: _190  and  _192
REMARK   78  A    between atoms: _192  and  _193
REMARK   79  A    between atoms: _192  and  _195
REMARK   80  A    between atoms: _195  and  _196
REMARK   81  A    between atoms: _196  and  _197
REMARK   82  A    between atoms: _197  and  _198
REMARK   83  A    between atoms: _207  and  _209
REMARK   84  A    between atoms: _209  and  _210
REMARK   85  A    between atoms: _212  and  _214
REMARK   86  A    between atoms: _214  and  _215
REMARK   87  A    between atoms: _217  and  _219
REMARK   88  A    between atoms: _219  and  _220
REMARK   89  A    between atoms: _219  and  _222
REMARK   90  A    between atoms: _222  and  _223
REMARK   91  A    between atoms: _223  and  _224
REMARK   92  A    between atoms: _227  and  _229
REMARK   93  A    between atoms: _229  and  _230
REMARK   94  A    between atoms: _229  and  _232
REMARK   95  A    between atoms: _232  and  _233
REMARK   96  A    between atoms: _233  and  _234
REMARK   97  A    between atoms: _234  and  _235
REMARK   98  A    between atoms: _244  and  _246
REMARK   99  A    between atoms: _246  and  _247
REMARK  100  A    between atoms: _246  and  _249
REMARK  101  A    between atoms: _249  and  _250
REMARK  102  A    between atoms: _250  and  _251
REMARK  103  A    between atoms: _254  and  _256
REMARK  104  A    between atoms: _256  and  _257
REMARK  105  A    between atoms: _256  and  _259
REMARK  106  A    between atoms: _259  and  _260
REMARK  107  A    between atoms: _263  and  _265
REMARK  108  A    between atoms: _265  and  _266
REMARK  109  A    between atoms: _265  and  _268
REMARK  110  A    between atoms: _268  and  _269
REMARK  111  A    between atoms: _272  and  _274
REMARK  112  A    between atoms: _274  and  _275
REMARK  113  A    between atoms: _274  and  _277
REMARK  114  A    between atoms: _277  and  _278
REMARK  115  A    between atoms: _281  and  _283
REMARK  116  A    between atoms: _283  and  _284
REMARK  117  A    between atoms: _283  and  _286
REMARK  118  A    between atoms: _286  and  _287
REMARK  119  A    between atoms: _287  and  _288
REMARK  120  A    between atoms: _293  and  _295
REMARK  121  A    between atoms: _295  and  _296
REMARK  122  A    between atoms: _298  and  _300
REMARK  123  A    between atoms: _300  and  _301
REMARK  124  A    between atoms: _300  and  _303
REMARK  125  A    between atoms: _303  and  _304
REMARK  126  A    between atoms: _307  and  _309
REMARK  127  A    between atoms: _309  and  _310
REMARK  128  A    between atoms: _309  and  _312
REMARK  129  A    between atoms: _312  and  _313
REMARK  130  A    between atoms: _318  and  _320
REMARK  131  A    between atoms: _320  and  _321
REMARK  132  A    between atoms: _320  and  _323
REMARK  133  A    between atoms: _323  and  _324
REMARK  134  A    between atoms: _327  and  _329
REMARK  135  A    between atoms: _329  and  _330
REMARK  136  A    between atoms: _329  and  _332
REMARK  137  A    between atoms: _332  and  _333
REMARK  138  A    between atoms: _335  and  _337
REMARK  139  A    between atoms: _337  and  _338
REMARK  140  A    between atoms: _337  and  _340
REMARK  141  A    between atoms: _340  and  _341
REMARK  142  A    between atoms: _341  and  _342
REMARK  143  A    between atoms: _347  and  _349
REMARK  144  A    between atoms: _349  and  _350
REMARK  145  A    between atoms: _349  and  _352
REMARK  146  A    between atoms: _352  and  _353
REMARK  147  A    between atoms: _356  and  _358
REMARK  148  A    between atoms: _358  and  _359
REMARK  149  A    between atoms: _358  and  _361
REMARK  150  A    between atoms: _364  and  _366
REMARK  151  A    between atoms: _366  and  _367
REMARK  152  A    between atoms: _366  and  _369
REMARK  153  A    between atoms: _369  and  _370
REMARK  154  A    between atoms: _370  and  _371
REMARK  155  A    between atoms: _371  and  _372
REMARK  156  A    between atoms: _381  and  _383
REMARK  157  A    between atoms: _383  and  _384
REMARK  158  A    between atoms: _383  and  _386
REMARK  159  A    between atoms: _386  and  _387
REMARK  160  A    between atoms: _390  and  _392
REMARK  161  A    between atoms: _392  and  _393
REMARK  162  A    between atoms: _392  and  _395
REMARK  163  A    between atoms: _395  and  _396
REMARK  164  A    between atoms: _406  and  _408
REMARK  165  A    between atoms: _408  and  _409
REMARK  166  A    between atoms: _408  and  _411
REMARK  167  A    between atoms: _411  and  _412
REMARK  168  A    between atoms: _416  and  _417
REMARK  169  A    between atoms: _422  and  _424
REMARK  170  A    between atoms: _424  and  _425
REMARK  171  A    between atoms: _424  and  _427
REMARK  172  A    between atoms: _427  and  _428
REMARK  173  A    between atoms: _434  and  _435
REMARK  174  A    between atoms: _440  and  _442
REMARK  175  A    between atoms: _442  and  _443
REMARK  176  A    between atoms: _445  and  _447
REMARK  177  A    between atoms: _447  and  _448
REMARK  178  A    between atoms: _447  and  _450
REMARK  179  A    between atoms: _450  and  _451
REMARK  180  A    between atoms: _454  and  _456
REMARK  181  A    between atoms: _456  and  _457
REMARK  182  A    between atoms: _456  and  _459
REMARK  183  A    between atoms: _459  and  _460
REMARK  184  A    between atoms: _460  and  _461
REMARK  185  A    between atoms: _461  and  _462
REMARK  186  A    between atoms: _462  and  _463
REMARK  187  A    between atoms: _467  and  _469
REMARK  188  A    between atoms: _469  and  _470
REMARK  189  A    between atoms: _469  and  _472
REMARK  190  A    between atoms: _475  and  _477
REMARK  191  A    between atoms: _477  and  _478
REMARK  192  A    between atoms: _481  and  _483
REMARK  193  A    between atoms: _483  and  _484
REMARK  194  A    between atoms: _483  and  _486
REMARK  195  A    between atoms: _486  and  _487
REMARK  196  A    between atoms: _490  and  _492
REMARK  197  A    between atoms: _492  and  _493
REMARK  198  A    between atoms: _492  and  _495
REMARK  199  A    between atoms: _495  and  _496
REMARK  200  A    between atoms: _502  and  _503
REMARK  201  A    between atoms: _508  and  _510
REMARK  202  A    between atoms: _510  and  _511
REMARK  203  A    between atoms: _510  and  _513
REMARK  204  A    between atoms: _513  and  _514
REMARK  205  A    between atoms: _520  and  _522
REMARK  206  A    between atoms: _522  and  _523
REMARK  207  A    between atoms: _522  and  _525
REMARK  208  A    between atoms: _525  and  _526
REMARK  209  A    between atoms: _529  and  _531
REMARK  210  A    between atoms: _531  and  _532
REMARK  211  A    between atoms: _534  and  _536
REMARK  212  A    between atoms: _536  and  _537
REMARK  213  A    between atoms: _536  and  _539
REMARK  214  A    between atoms: _539  and  _540
REMARK  215  A    between atoms: _543  and  _545
REMARK  216  A    between atoms: _545  and  _546
REMARK  217  A    between atoms: _545  and  _548
REMARK  218  A    between atoms: _548  and  _549
REMARK  219  A    between atoms: _555  and  _557
REMARK  220  A    between atoms: _557  and  _558
REMARK  221  A    between atoms: _557  and  _560
REMARK  222  A    between atoms: _560  and  _561
REMARK  223  A    between atoms: _561  and  _562
REMARK  224  A    between atoms: _567  and  _569
REMARK  225  A    between atoms: _569  and  _570
REMARK  226  A    between atoms: _569  and  _572
REMARK  227  A    between atoms: _572  and  _573
REMARK  228  A    between atoms: _576  and  _578
REMARK  229  A    between atoms: _578  and  _579
REMARK  230  A    between atoms: _578  and  _581
REMARK  231  A    between atoms: _581  and  _582
REMARK  232  A    between atoms: _584  and  _586
REMARK  233  A    between atoms: _586  and  _587
REMARK  234  A    between atoms: _586  and  _589
REMARK  235  A    between atoms: _589  and  _590
REMARK  236  A    between atoms: _596  and  _598
REMARK  237  A    between atoms: _598  and  _599
REMARK  238  A    between atoms: _598  and  _601
REMARK  239  A    between atoms: _601  and  _602
REMARK  240  A    between atoms: _607  and  _608
REMARK  241  A    between atoms: _610  and  _612
REMARK  242  A    between atoms: _612  and  _613
REMARK  243  A    between atoms: _612  and  _615
REMARK  244  A    between atoms: _615  and  _616
REMARK                            x       y       z     vdW  Elec       q    Type
REMARK                         _______ _______ _______ _____ _____    ______ ____
ROOT
ATOM      1  O   HOH     1     -24.954  -0.983  50.017  0.00  0.00    +0.000 OA
ENDROOT
TORSDOF 0
REMARK  Name = ../refined-set-2016/4ido/4ido_pocket.pdb
REMARK  244 active torsions:
REMARK  status: ('A' for Active; 'I' for Inactive)
REMARK    1  A    between atoms: _1  and  _3
REMARK    2  A    between atoms: _3  and  _4
REMARK    3  A    between atoms: _3  and  _6
REMARK    4  A    between atoms: _9  and  _11
REMARK    5  A    between atoms: _11  and  _12
REMARK    6  A    between atoms: _15  and  _17
REMARK    7  A    between atoms: _17  and  _18
REMARK    8  A    between atoms: _20  and  _22
REMARK    9  A    between atoms: _22  and  _23
REMARK   10  A    between atoms: _26  and  _28
REMARK   11  A    between atoms: _28  and  _29
REMARK   12  A    between atoms: _28  and  _31
REMARK   13  A    between atoms: _31  and  _32
REMARK   14  A    between atoms: _38  and  _40
REMARK   15  A    between atoms: _40  and  _41
REMARK   16  A    between atoms: _40  and  _43
REMARK   17  A    between atoms: _43  and  _44
REMARK   18  A    between atoms: _44  and  _45
REMARK   19  A    between atoms: _45  and  _46
REMARK   20  A    between atoms: _55  and  _57
REMARK   21  A    between atoms: _57  and  _58
REMARK   22  A    between atoms: _57  and  _60
REMARK   23  A    between atoms: _60  and  _61
REMARK   24  A    between atoms: _61  and  _62
REMARK   25  A    between atoms: _62  and  _63
REMARK   26  A    between atoms: _63  and  _64
REMARK   27  A    between atoms: _68  and  _70
REMARK   28  A    between atoms: _70  and  _71
REMARK   29  A    between atoms: _73  and  _75
REMARK   30  A    between atoms: _75  and  _76
REMARK   31  A    between atoms: _75  and  _78
REMARK   32  A    between atoms: _78  and  _79
REMARK   33  A    between atoms: _79  and  _80
REMARK   34  A    between atoms: _80  and  _81
REMARK   35  A    between atoms: _81  and  _82
REMARK   36  A    between atoms: _86  and  _88
REMARK   37  A    between atoms: _88  and  _89
REMARK   38  A    between atoms: _88  and  _91
REMARK   39  A    between atoms: _91  and  _92
REMARK   40  A    between atoms: _94  and  _96
REMARK   41  A    between atoms: _96  and  _97
REMARK   42  A    between atoms: _96  and  _99
REMARK   43  A    between atoms: _99  and  _100
REMARK   44  A    between atoms: _106  and  _108
REMARK   45  A    between atoms: _108  and  _109
REMARK   46  A    between atoms: _108  and  _111
REMARK   47  A    between atoms: _111  and  _112
REMARK   48  A    between atoms: _115  and  _117
REMARK   49  A    between atoms: _117  and  _118
REMARK   50  A    between atoms: _117  and  _120
REMARK   51  A    between atoms: _120  and  _121
REMARK   52  A    between atoms: _121  and  _122
REMARK   53  A    between atoms: _124  and  _126
REMARK   54  A    between atoms: _126  and  _127
REMARK   55  A    between atoms: _126  and  _129
REMARK   56  A    between atoms: _129  and  _130
REMARK   57  A    between atoms: _133  and  _135
REMARK   58  A    between atoms: _135  and  _136
REMARK   59  A    between atoms: _135  and  _138
REMARK   60  A    between atoms: _138  and  _139
REMARK   61  A    between atoms: _145  and  _147
REMARK   62  A    between atoms: _147  and  _148
REMARK   63  A    between atoms: _147  and  _150
REMARK   64  A    between atoms: _150  and  _151
REMARK   65  A    between atoms: _154  and  _156
REMARK   66  A    between atoms: _156  and  _157
REMARK   67  A    between atoms: _156  and  _159
REMARK   68  A    between atoms: _159  and  _160
REMARK   69  A    between atoms: _166  and  _168
REMARK   70  A    between atoms: _168  and  _169
REMARK   71  A    between atoms: _168  and  _171
REMARK   72  A    between atoms: _171  and  _172
REMARK   73  A    between atoms: _174  and  _176
REMARK   74  A    between atoms: _176  and  _177
REMARK   75  A    between atoms: _176  and  _179
REMARK   76  A    between atoms: _179  and  _180
REMARK   77  A    between atoms: _190  and  _192
REMARK   78  A    between atoms: _192  and  _193
REMARK   79  A    between atoms: _192  and  _195
REMARK   80  A    between atoms: _195  and  _196
REMARK   81  A    between atoms: _196  and  _197
REMARK   82  A    between atoms: _197  and  _198
REMARK   83  A    between atoms: _207  and  _209
REMARK   84  A    between atoms: _209  and  _210
REMARK   85  A    between atoms: _212  and  _214
REMARK   86  A    between atoms: _214  and  _215
REMARK   87  A    between atoms: _217  and  _219
REMARK   88  A    between atoms: _219  and  _220
REMARK   89  A    between atoms: _219  and  _222
REMARK   90  A    between atoms: _222  and  _223
REMARK   91  A    between atoms: _223  and  _224
REMARK   92  A    between atoms: _227  and  _229
REMARK   93  A    between atoms: _229  and  _230
REMARK   94  A    between atoms: _229  and  _232
REMARK   95  A    between atoms: _232  and  _233
REMARK   96  A    between atoms: _233  and  _234
REMARK   97  A    between atoms: _234  and  _235
REMARK   98  A    between atoms: _244  and  _246
REMARK   99  A    between atoms: _246  and  _247
REMARK  100  A    between atoms: _246  and  _249
REMARK  101  A    between atoms: _249  and  _250
REMARK  102  A    between atoms: _250  and  _251
REMARK  103  A    between atoms: _254  and  _256
REMARK  104  A    between atoms: _256  and  _257
REMARK  105  A    between atoms: _256  and  _259
REMARK  106  A    between atoms: _259  and  _260
REMARK  107  A    between atoms: _263  and  _265
REMARK  108  A    between atoms: _265  and  _266
REMARK  109  A    between atoms: _265  and  _268
REMARK  110  A    between atoms: _268  and  _269
REMARK  111  A    between atoms: _272  and  _274
REMARK  112  A    between atoms: _274  and  _275
REMARK  113  A    between atoms: _274  and  _277
REMARK  114  A    between atoms: _277  and  _278
REMARK  115  A    between atoms: _281  and  _283
REMARK  116  A    between atoms: _283  and  _284
REMARK  117  A    between atoms: _283  and  _286
REMARK  118  A    between atoms: _286  and  _287
REMARK  119  A    between atoms: _287  and  _288
REMARK  120  A    between atoms: _293  and  _295
REMARK  121  A    between atoms: _295  and  _296
REMARK  122  A    between atoms: _298  and  _300
REMARK  123  A    between atoms: _300  and  _301
REMARK  124  A    between atoms: _300  and  _303
REMARK  125  A    between atoms: _303  and  _304
REMARK  126  A    between atoms: _307  and  _309
REMARK  127  A    between atoms: _309  and  _310
REMARK  128  A    between atoms: _309  and  _312
REMARK  129  A    between atoms: _312  and  _313
REMARK  130  A    between atoms: _318  and  _320
REMARK  131  A    between atoms: _320  and  _321
REMARK  132  A    between atoms: _320  and  _323
REMARK  133  A    between atoms: _323  and  _324
REMARK  134  A    between atoms: _327  and  _329
REMARK  135  A    between atoms: _329  and  _330
REMARK  136  A    between atoms: _329  and  _332
REMARK  137  A    between atoms: _332  and  _333
REMARK  138  A    between atoms: _335  and  _337
REMARK  139  A    between atoms: _337  and  _338
REMARK  140  A    between atoms: _337  and  _340
REMARK  141  A    between atoms: _340  and  _341
REMARK  142  A    between atoms: _341  and  _342
REMARK  143  A    between atoms: _347  and  _349
REMARK  144  A    between atoms: _349  and  _350
REMARK  145  A    between atoms: _349  and  _352
REMARK  146  A    between atoms: _352  and  _353
REMARK  147  A    between atoms: _356  and  _358
REMARK  148  A    between atoms: _358  and  _359
REMARK  149  A    between atoms: _358  and  _361
REMARK  150  A    between atoms: _364  and  _366
REMARK  151  A    between atoms: _366  and  _367
REMARK  152  A    between atoms: _366  and  _369
REMARK  153  A    between atoms: _369  and  _370
REMARK  154  A    between atoms: _370  and  _371
REMARK  155  A    between atoms: _371  and  _372
REMARK  156  A    between atoms: _381  and  _383
REMARK  157  A    between atoms: _383  and  _384
REMARK  158  A    between atoms: _383  and  _386
REMARK  159  A    between atoms: _386  and  _387
REMARK  160  A    between atoms: _390  and  _392
REMARK  161  A    between atoms: _392  and  _393
REMARK  162  A    between atoms: _392  and  _395
REMARK  163  A    between atoms: _395  and  _396
REMARK  164  A    between atoms: _406  and  _408
REMARK  165  A    between atoms: _408  and  _409
REMARK  166  A    between atoms: _408  and  _411
REMARK  167  A    between atoms: _411  and  _412
REMARK  168  A    between atoms: _416  and  _417
REMARK  169  A    between atoms: _422  and  _424
REMARK  170  A    between atoms: _424  and  _425
REMARK  171  A    between atoms: _424  and  _427
REMARK  172  A    between atoms: _427  and  _428
REMARK  173  A    between atoms: _434  and  _435
REMARK  174  A    between atoms: _440  and  _442
REMARK  175  A    between atoms: _442  and  _443
REMARK  176  A    between atoms: _445  and  _447
REMARK  177  A    between atoms: _447  and  _448
REMARK  178  A    between atoms: _447  and  _450
REMARK  179  A    between atoms: _450  and  _451
REMARK  180  A    between atoms: _454  and  _456
REMARK  181  A    between atoms: _456  and  _457
REMARK  182  A    between atoms: _456  and  _459
REMARK  183  A    between atoms: _459  and  _460
REMARK  184  A    between atoms: _460  and  _461
REMARK  185  A    between atoms: _461  and  _462
REMARK  186  A    between atoms: _462  and  _463
REMARK  187  A    between atoms: _467  and  _469
REMARK  188  A    between atoms: _469  and  _470
REMARK  189  A    between atoms: _469  and  _472
REMARK  190  A    between atoms: _475  and  _477
REMARK  191  A    between atoms: _477  and  _478
REMARK  192  A    between atoms: _481  and  _483
REMARK  193  A    between atoms: _483  and  _484
REMARK  194  A    between atoms: _483  and  _486
REMARK  195  A    between atoms: _486  and  _487
REMARK  196  A    between atoms: _490  and  _492
REMARK  197  A    between atoms: _492  and  _493
REMARK  198  A    between atoms: _492  and  _495
REMARK  199  A    between atoms: _495  and  _496
REMARK  200  A    between atoms: _502  and  _503
REMARK  201  A    between atoms: _508  and  _510
REMARK  202  A    between atoms: _510  and  _511
REMARK  203  A    between atoms: _510  and  _513
REMARK  204  A    between atoms: _513  and  _514
REMARK  205  A    between atoms: _520  and  _522
REMARK  206  A    between atoms: _522  and  _523
REMARK  207  A    between atoms: _522  and  _525
REMARK  208  A    between atoms: _525  and  _526
REMARK  209  A    between atoms: _529  and  _531
REMARK  210  A    between atoms: _531  and  _532
REMARK  211  A    between atoms: _534  and  _536
REMARK  212  A    between atoms: _536  and  _537
REMARK  213  A    between atoms: _536  and  _539
REMARK  214  A    between atoms: _539  and  _540
REMARK  215  A    between atoms: _543  and  _545
REMARK  216  A    between atoms: _545  and  _546
REMARK  217  A    between atoms: _545  and  _548
REMARK  218  A    between atoms: _548  and  _549
REMARK  219  A    between atoms: _555  and  _557
REMARK  220  A    between atoms: _557  and  _558
REMARK  221  A    between atoms: _557  and  _560
REMARK  222  A    between atoms: _560  and  _561
REMARK  223  A    between atoms: _561  and  _562
REMARK  224  A    between atoms: _567  and  _569
REMARK  225  A    between atoms: _569  and  _570
REMARK  226  A    between atoms: _569  and  _572
REMARK  227  A    between atoms: _572  and  _573
REMARK  228  A    between atoms: _576  and  _578
REMARK  229  A    between atoms: _578  and  _579
REMARK  230  A    between atoms: _578  and  _581
REMARK  231  A    between atoms: _581  and  _582
REMARK  232  A    between atoms: _584  and  _586
REMARK  233  A    between atoms: _586  and  _587
REMARK  234  A    between atoms: _586  and  _589
REMARK  235  A    between atoms: _589  and  _590
REMARK  236  A    between atoms: _596  and  _598
REMARK  237  A    between atoms: _598  and  _599
REMARK  238  A    between atoms: _598  and  _601
REMARK  239  A    between atoms: _601  and  _602
REMARK  240  A    between atoms: _607  and  _608
REMARK  241  A    between atoms: _610  and  _612
REMARK  242  A    between atoms: _612  and  _613
REMARK  243  A    between atoms: _612  and  _615
REMARK  244  A    between atoms: _615  and  _616
REMARK                            x       y       z     vdW  Elec       q    Type
REMARK                         _______ _______ _______ _____ _____    ______ ____
ROOT
ATOM      1  O   HOH     1     -25.778   6.310  37.423  0.00  0.00    +0.000 OA
ENDROOT
TORSDOF 0
REMARK  Name = ../refined-set-2016/4ido/4ido_pocket.pdb
REMARK  244 active torsions:
REMARK  status: ('A' for Active; 'I' for Inactive)
REMARK    1  A    between atoms: _1  and  _3
REMARK    2  A    between atoms: _3  and  _4
REMARK    3  A    between atoms: _3  and  _6
REMARK    4  A    between atoms: _9  and  _11
REMARK    5  A    between atoms: _11  and  _12
REMARK    6  A    between atoms: _15  and  _17
REMARK    7  A    between atoms: _17  and  _18
REMARK    8  A    between atoms: _20  and  _22
REMARK    9  A    between atoms: _22  and  _23
REMARK   10  A    between atoms: _26  and  _28
REMARK   11  A    between atoms: _28  and  _29
REMARK   12  A    between atoms: _28  and  _31
REMARK   13  A    between atoms: _31  and  _32
REMARK   14  A    between atoms: _38  and  _40
REMARK   15  A    between atoms: _40  and  _41
REMARK   16  A    between atoms: _40  and  _43
REMARK   17  A    between atoms: _43  and  _44
REMARK   18  A    between atoms: _44  and  _45
REMARK   19  A    between atoms: _45  and  _46
REMARK   20  A    between atoms: _55  and  _57
REMARK   21  A    between atoms: _57  and  _58
REMARK   22  A    between atoms: _57  and  _60
REMARK   23  A    between atoms: _60  and  _61
REMARK   24  A    between atoms: _61  and  _62
REMARK   25  A    between atoms: _62  and  _63
REMARK   26  A    between atoms: _63  and  _64
REMARK   27  A    between atoms: _68  and  _70
REMARK   28  A    between atoms: _70  and  _71
REMARK   29  A    between atoms: _73  and  _75
REMARK   30  A    between atoms: _75  and  _76
REMARK   31  A    between atoms: _75  and  _78
REMARK   32  A    between atoms: _78  and  _79
REMARK   33  A    between atoms: _79  and  _80
REMARK   34  A    between atoms: _80  and  _81
REMARK   35  A    between atoms: _81  and  _82
REMARK   36  A    between atoms: _86  and  _88
REMARK   37  A    between atoms: _88  and  _89
REMARK   38  A    between atoms: _88  and  _91
REMARK   39  A    between atoms: _91  and  _92
REMARK   40  A    between atoms: _94  and  _96
REMARK   41  A    between atoms: _96  and  _97
REMARK   42  A    between atoms: _96  and  _99
REMARK   43  A    between atoms: _99  and  _100
REMARK   44  A    between atoms: _106  and  _108
REMARK   45  A    between atoms: _108  and  _109
REMARK   46  A    between atoms: _108  and  _111
REMARK   47  A    between atoms: _111  and  _112
REMARK   48  A    between atoms: _115  and  _117
REMARK   49  A    between atoms: _117  and  _118
REMARK   50  A    between atoms: _117  and  _120
REMARK   51  A    between atoms: _120  and  _121
REMARK   52  A    between atoms: _121  and  _122
REMARK   53  A    between atoms: _124  and  _126
REMARK   54  A    between atoms: _126  and  _127
REMARK   55  A    between atoms: _126  and  _129
REMARK   56  A    between atoms: _129  and  _130
REMARK   57  A    between atoms: _133  and  _135
REMARK   58  A    between atoms: _135  and  _136
REMARK   59  A    between atoms: _135  and  _138
REMARK   60  A    between atoms: _138  and  _139
REMARK   61  A    between atoms: _145  and  _147
REMARK   62  A    between atoms: _147  and  _148
REMARK   63  A    between atoms: _147  and  _150
REMARK   64  A    between atoms: _150  and  _151
REMARK   65  A    between atoms: _154  and  _156
REMARK   66  A    between atoms: _156  and  _157
REMARK   67  A    between atoms: _156  and  _159
REMARK   68  A    between atoms: _159  and  _160
REMARK   69  A    between atoms: _166  and  _168
REMARK   70  A    between atoms: _168  and  _169
REMARK   71  A    between atoms: _168  and  _171
REMARK   72  A    between atoms: _171  and  _172
REMARK   73  A    between atoms: _174  and  _176
REMARK   74  A    between atoms: _176  and  _177
REMARK   75  A    between atoms: _176  and  _179
REMARK   76  A    between atoms: _179  and  _180
REMARK   77  A    between atoms: _190  and  _192
REMARK   78  A    between atoms: _192  and  _193
REMARK   79  A    between atoms: _192  and  _195
REMARK   80  A    between atoms: _195  and  _196
REMARK   81  A    between atoms: _196  and  _197
REMARK   82  A    between atoms: _197  and  _198
REMARK   83  A    between atoms: _207  and  _209
REMARK   84  A    between atoms: _209  and  _210
REMARK   85  A    between atoms: _212  and  _214
REMARK   86  A    between atoms: _214  and  _215
REMARK   87  A    between atoms: _217  and  _219
REMARK   88  A    between atoms: _219  and  _220
REMARK   89  A    between atoms: _219  and  _222
REMARK   90  A    between atoms: _222  and  _223
REMARK   91  A    between atoms: _223  and  _224
REMARK   92  A    between atoms: _227  and  _229
REMARK   93  A    between atoms: _229  and  _230
REMARK   94  A    between atoms: _229  and  _232
REMARK   95  A    between atoms: _232  and  _233
REMARK   96  A    between atoms: _233  and  _234
REMARK   97  A    between atoms: _234  and  _235
REMARK   98  A    between atoms: _244  and  _246
REMARK   99  A    between atoms: _246  and  _247
REMARK  100  A    between atoms: _246  and  _249
REMARK  101  A    between atoms: _249  and  _250
REMARK  102  A    between atoms: _250  and  _251
REMARK  103  A    between atoms: _254  and  _256
REMARK  104  A    between atoms: _256  and  _257
REMARK  105  A    between atoms: _256  and  _259
REMARK  106  A    between atoms: _259  and  _260
REMARK  107  A    between atoms: _263  and  _265
REMARK  108  A    between atoms: _265  and  _266
REMARK  109  A    between atoms: _265  and  _268
REMARK  110  A    between atoms: _268  and  _269
REMARK  111  A    between atoms: _272  and  _274
REMARK  112  A    between atoms: _274  and  _275
REMARK  113  A    between atoms: _274  and  _277
REMARK  114  A    between atoms: _277  and  _278
REMARK  115  A    between atoms: _281  and  _283
REMARK  116  A    between atoms: _283  and  _284
REMARK  117  A    between atoms: _283  and  _286
REMARK  118  A    between atoms: _286  and  _287
REMARK  119  A    between atoms: _287  and  _288
REMARK  120  A    between atoms: _293  and  _295
REMARK  121  A    between atoms: _295  and  _296
REMARK  122  A    between atoms: _298  and  _300
REMARK  123  A    between atoms: _300  and  _301
REMARK  124  A    between atoms: _300  and  _303
REMARK  125  A    between atoms: _303  and  _304
REMARK  126  A    between atoms: _307  and  _309
REMARK  127  A    between atoms: _309  and  _310
REMARK  128  A    between atoms: _309  and  _312
REMARK  129  A    between atoms: _312  and  _313
REMARK  130  A    between atoms: _318  and  _320
REMARK  131  A    between atoms: _320  and  _321
REMARK  132  A    between atoms: _320  and  _323
REMARK  133  A    between atoms: _323  and  _324
REMARK  134  A    between atoms: _327  and  _329
REMARK  135  A    between atoms: _329  and  _330
REMARK  136  A    between atoms: _329  and  _332
REMARK  137  A    between atoms: _332  and  _333
REMARK  138  A    between atoms: _335  and  _337
REMARK  139  A    between atoms: _337  and  _338
REMARK  140  A    between atoms: _337  and  _340
REMARK  141  A    between atoms: _340  and  _341
REMARK  142  A    between atoms: _341  and  _342
REMARK  143  A    between atoms: _347  and  _349
REMARK  144  A    between atoms: _349  and  _350
REMARK  145  A    between atoms: _349  and  _352
REMARK  146  A    between atoms: _352  and  _353
REMARK  147  A    between atoms: _356  and  _358
REMARK  148  A    between atoms: _358  and  _359
REMARK  149  A    between atoms: _358  and  _361
REMARK  150  A    between atoms: _364  and  _366
REMARK  151  A    between atoms: _366  and  _367
REMARK  152  A    between atoms: _366  and  _369
REMARK  153  A    between atoms: _369  and  _370
REMARK  154  A    between atoms: _370  and  _371
REMARK  155  A    between atoms: _371  and  _372
REMARK  156  A    between atoms: _381  and  _383
REMARK  157  A    between atoms: _383  and  _384
REMARK  158  A    between atoms: _383  and  _386
REMARK  159  A    between atoms: _386  and  _387
REMARK  160  A    between atoms: _390  and  _392
REMARK  161  A    between atoms: _392  and  _393
REMARK  162  A    between atoms: _392  and  _395
REMARK  163  A    between atoms: _395  and  _396
REMARK  164  A    between atoms: _406  and  _408
REMARK  165  A    between atoms: _408  and  _409
REMARK  166  A    between atoms: _408  and  _411
REMARK  167  A    between atoms: _411  and  _412
REMARK  168  A    between atoms: _416  and  _417
REMARK  169  A    between atoms: _422  and  _424
REMARK  170  A    between atoms: _424  and  _425
REMARK  171  A    between atoms: _424  and  _427
REMARK  172  A    between atoms: _427  and  _428
REMARK  173  A    between atoms: _434  and  _435
REMARK  174  A    between atoms: _440  and  _442
REMARK  175  A    between atoms: _442  and  _443
REMARK  176  A    between atoms: _445  and  _447
REMARK  177  A    between atoms: _447  and  _448
REMARK  178  A    between atoms: _447  and  _450
REMARK  179  A    between atoms: _450  and  _451
REMARK  180  A    between atoms: _454  and  _456
REMARK  181  A    between atoms: _456  and  _457
REMARK  182  A    between atoms: _456  and  _459
REMARK  183  A    between atoms: _459  and  _460
REMARK  184  A    between atoms: _460  and  _461
REMARK  185  A    between atoms: _461  and  _462
REMARK  186  A    between atoms: _462  and  _463
REMARK  187  A    between atoms: _467  and  _469
REMARK  188  A    between atoms: _469  and  _470
REMARK  189  A    between atoms: _469  and  _472
REMARK  190  A    between atoms: _475  and  _477
REMARK  191  A    between atoms: _477  and  _478
REMARK  192  A    between atoms: _481  and  _483
REMARK  193  A    between atoms: _483  and  _484
REMARK  194  A    between atoms: _483  and  _486
REMARK  195  A    between atoms: _486  and  _487
REMARK  196  A    between atoms: _490  and  _492
REMARK  197  A    between atoms: _492  and  _493
REMARK  198  A    between atoms: _492  and  _495
REMARK  199  A    between atoms: _495  and  _496
REMARK  200  A    between atoms: _502  and  _503
REMARK  201  A    between atoms: _508  and  _510
REMARK  202  A    between atoms: _510  and  _511
REMARK  203  A    between atoms: _510  and  _513
REMARK  204  A    between atoms: _513  and  _514
REMARK  205  A    between atoms: _520  and  _522
REMARK  206  A    between atoms: _522  and  _523
REMARK  207  A    between atoms: _522  and  _525
REMARK  208  A    between atoms: _525  and  _526
REMARK  209  A    between atoms: _529  and  _531
REMARK  210  A    between atoms: _531  and  _532
REMARK  211  A    between atoms: _534  and  _536
REMARK  212  A    between atoms: _536  and  _537
REMARK  213  A    between atoms: _536  and  _539
REMARK  214  A    between atoms: _539  and  _540
REMARK  215  A    between atoms: _543  and  _545
REMARK  216  A    between atoms: _545  and  _546
REMARK  217  A    between atoms: _545  and  _548
REMARK  218  A    between atoms: _548  and  _549
REMARK  219  A    between atoms: _555  and  _557
REMARK  220  A    between atoms: _557  and  _558
REMARK  221  A    between atoms: _557  and  _560
REMARK  222  A    between atoms: _560  and  _561
REMARK  223  A    between atoms: _561  and  _562
REMARK  224  A    between atoms: _567  and  _569
REMARK  225  A    between atoms: _569  and  _570
REMARK  226  A    between atoms: _569  and  _572
REMARK  227  A    between atoms: _572  and  _573
REMARK  228  A    between atoms: _576  and  _578
REMARK  229  A    between atoms: _578  and  _579
REMARK  230  A    between atoms: _578  and  _581
REMARK  231  A    between atoms: _581  and  _582
REMARK  232  A    between atoms: _584  and  _586
REMARK  233  A    between atoms: _586  and  _587
REMARK  234  A    between atoms: _586  and  _589
REMARK  235  A    between atoms: _589  and  _590
REMARK  236  A    between atoms: _596  and  _598
REMARK  237  A    between atoms: _598  and  _599
REMARK  238  A    between atoms: _598  and  _601
REMARK  239  A    between atoms: _601  and  _602
REMARK  240  A    between atoms: _607  and  _608
REMARK  241  A    between atoms: _610  and  _612
REMARK  242  A    between atoms: _612  and  _613
REMARK  243  A    between atoms: _612  and  _615
REMARK  244  A    between atoms: _615  and  _616
REMARK                            x       y       z     vdW  Elec       q    Type
REMARK                         _______ _______ _______ _____ _____    ______ ____
ROOT
ATOM      1  O   HOH     1     -31.439  -4.940  46.518  0.00  0.00    +0.000 OA
ENDROOT
TORSDOF 0
REMARK  Name = ../refined-set-2016/4ido/4ido_pocket.pdb
REMARK  244 active torsions:
REMARK  status: ('A' for Active; 'I' for Inactive)
REMARK    1  A    between atoms: _1  and  _3
REMARK    2  A    between atoms: _3  and  _4
REMARK    3  A    between atoms: _3  and  _6
REMARK    4  A    between atoms: _9  and  _11
REMARK    5  A    between atoms: _11  and  _12
REMARK    6  A    between atoms: _15  and  _17
REMARK    7  A    between atoms: _17  and  _18
REMARK    8  A    between atoms: _20  and  _22
REMARK    9  A    between atoms: _22  and  _23
REMARK   10  A    between atoms: _26  and  _28
REMARK   11  A    between atoms: _28  and  _29
REMARK   12  A    between atoms: _28  and  _31
REMARK   13  A    between atoms: _31  and  _32
REMARK   14  A    between atoms: _38  and  _40
REMARK   15  A    between atoms: _40  and  _41
REMARK   16  A    between atoms: _40  and  _43
REMARK   17  A    between atoms: _43  and  _44
REMARK   18  A    between atoms: _44  and  _45
REMARK   19  A    between atoms: _45  and  _46
REMARK   20  A    between atoms: _55  and  _57
REMARK   21  A    between atoms: _57  and  _58
REMARK   22  A    between atoms: _57  and  _60
REMARK   23  A    between atoms: _60  and  _61
REMARK   24  A    between atoms: _61  and  _62
REMARK   25  A    between atoms: _62  and  _63
REMARK   26  A    between atoms: _63  and  _64
REMARK   27  A    between atoms: _68  and  _70
REMARK   28  A    between atoms: _70  and  _71
REMARK   29  A    between atoms: _73  and  _75
REMARK   30  A    between atoms: _75  and  _76
REMARK   31  A    between atoms: _75  and  _78
REMARK   32  A    between atoms: _78  and  _79
REMARK   33  A    between atoms: _79  and  _80
REMARK   34  A    between atoms: _80  and  _81
REMARK   35  A    between atoms: _81  and  _82
REMARK   36  A    between atoms: _86  and  _88
REMARK   37  A    between atoms: _88  and  _89
REMARK   38  A    between atoms: _88  and  _91
REMARK   39  A    between atoms: _91  and  _92
REMARK   40  A    between atoms: _94  and  _96
REMARK   41  A    between atoms: _96  and  _97
REMARK   42  A    between atoms: _96  and  _99
REMARK   43  A    between atoms: _99  and  _100
REMARK   44  A    between atoms: _106  and  _108
REMARK   45  A    between atoms: _108  and  _109
REMARK   46  A    between atoms: _108  and  _111
REMARK   47  A    between atoms: _111  and  _112
REMARK   48  A    between atoms: _115  and  _117
REMARK   49  A    between atoms: _117  and  _118
REMARK   50  A    between atoms: _117  and  _120
REMARK   51  A    between atoms: _120  and  _121
REMARK   52  A    between atoms: _121  and  _122
REMARK   53  A    between atoms: _124  and  _126
REMARK   54  A    between atoms: _126  and  _127
REMARK   55  A    between atoms: _126  and  _129
REMARK   56  A    between atoms: _129  and  _130
REMARK   57  A    between atoms: _133  and  _135
REMARK   58  A    between atoms: _135  and  _136
REMARK   59  A    between atoms: _135  and  _138
REMARK   60  A    between atoms: _138  and  _139
REMARK   61  A    between atoms: _145  and  _147
REMARK   62  A    between atoms: _147  and  _148
REMARK   63  A    between atoms: _147  and  _150
REMARK   64  A    between atoms: _150  and  _151
REMARK   65  A    between atoms: _154  and  _156
REMARK   66  A    between atoms: _156  and  _157
REMARK   67  A    between atoms: _156  and  _159
REMARK   68  A    between atoms: _159  and  _160
REMARK   69  A    between atoms: _166  and  _168
REMARK   70  A    between atoms: _168  and  _169
REMARK   71  A    between atoms: _168  and  _171
REMARK   72  A    between atoms: _171  and  _172
REMARK   73  A    between atoms: _174  and  _176
REMARK   74  A    between atoms: _176  and  _177
REMARK   75  A    between atoms: _176  and  _179
REMARK   76  A    between atoms: _179  and  _180
REMARK   77  A    between atoms: _190  and  _192
REMARK   78  A    between atoms: _192  and  _193
REMARK   79  A    between atoms: _192  and  _195
REMARK   80  A    between atoms: _195  and  _196
REMARK   81  A    between atoms: _196  and  _197
REMARK   82  A    between atoms: _197  and  _198
REMARK   83  A    between atoms: _207  and  _209
REMARK   84  A    between atoms: _209  and  _210
REMARK   85  A    between atoms: _212  and  _214
REMARK   86  A    between atoms: _214  and  _215
REMARK   87  A    between atoms: _217  and  _219
REMARK   88  A    between atoms: _219  and  _220
REMARK   89  A    between atoms: _219  and  _222
REMARK   90  A    between atoms: _222  and  _223
REMARK   91  A    between atoms: _223  and  _224
REMARK   92  A    between atoms: _227  and  _229
REMARK   93  A    between atoms: _229  and  _230
REMARK   94  A    between atoms: _229  and  _232
REMARK   95  A    between atoms: _232  and  _233
REMARK   96  A    between atoms: _233  and  _234
REMARK   97  A    between atoms: _234  and  _235
REMARK   98  A    between atoms: _244  and  _246
REMARK   99  A    between atoms: _246  and  _247
REMARK  100  A    between atoms: _246  and  _249
REMARK  101  A    between atoms: _249  and  _250
REMARK  102  A    between atoms: _250  and  _251
REMARK  103  A    between atoms: _254  and  _256
REMARK  104  A    between atoms: _256  and  _257
REMARK  105  A    between atoms: _256  and  _259
REMARK  106  A    between atoms: _259  and  _260
REMARK  107  A    between atoms: _263  and  _265
REMARK  108  A    between atoms: _265  and  _266
REMARK  109  A    between atoms: _265  and  _268
REMARK  110  A    between atoms: _268  and  _269
REMARK  111  A    between atoms: _272  and  _274
REMARK  112  A    between atoms: _274  and  _275
REMARK  113  A    between atoms: _274  and  _277
REMARK  114  A    between atoms: _277  and  _278
REMARK  115  A    between atoms: _281  and  _283
REMARK  116  A    between atoms: _283  and  _284
REMARK  117  A    between atoms: _283  and  _286
REMARK  118  A    between atoms: _286  and  _287
REMARK  119  A    between atoms: _287  and  _288
REMARK  120  A    between atoms: _293  and  _295
REMARK  121  A    between atoms: _295  and  _296
REMARK  122  A    between atoms: _298  and  _300
REMARK  123  A    between atoms: _300  and  _301
REMARK  124  A    between atoms: _300  and  _303
REMARK  125  A    between atoms: _303  and  _304
REMARK  126  A    between atoms: _307  and  _309
REMARK  127  A    between atoms: _309  and  _310
REMARK  128  A    between atoms: _309  and  _312
REMARK  129  A    between atoms: _312  and  _313
REMARK  130  A    between atoms: _318  and  _320
REMARK  131  A    between atoms: _320  and  _321
REMARK  132  A    between atoms: _320  and  _323
REMARK  133  A    between atoms: _323  and  _324
REMARK  134  A    between atoms: _327  and  _329
REMARK  135  A    between atoms: _329  and  _330
REMARK  136  A    between atoms: _329  and  _332
REMARK  137  A    between atoms: _332  and  _333
REMARK  138  A    between atoms: _335  and  _337
REMARK  139  A    between atoms: _337  and  _338
REMARK  140  A    between atoms: _337  and  _340
REMARK  141  A    between atoms: _340  and  _341
REMARK  142  A    between atoms: _341  and  _342
REMARK  143  A    between atoms: _347  and  _349
REMARK  144  A    between atoms: _349  and  _350
REMARK  145  A    between atoms: _349  and  _352
REMARK  146  A    between atoms: _352  and  _353
REMARK  147  A    between atoms: _356  and  _358
REMARK  148  A    between atoms: _358  and  _359
REMARK  149  A    between atoms: _358  and  _361
REMARK  150  A    between atoms: _364  and  _366
REMARK  151  A    between atoms: _366  and  _367
REMARK  152  A    between atoms: _366  and  _369
REMARK  153  A    between atoms: _369  and  _370
REMARK  154  A    between atoms: _370  and  _371
REMARK  155  A    between atoms: _371  and  _372
REMARK  156  A    between atoms: _381  and  _383
REMARK  157  A    between atoms: _383  and  _384
REMARK  158  A    between atoms: _383  and  _386
REMARK  159  A    between atoms: _386  and  _387
REMARK  160  A    between atoms: _390  and  _392
REMARK  161  A    between atoms: _392  and  _393
REMARK  162  A    between atoms: _392  and  _395
REMARK  163  A    between atoms: _395  and  _396
REMARK  164  A    between atoms: _406  and  _408
REMARK  165  A    between atoms: _408  and  _409
REMARK  166  A    between atoms: _408  and  _411
REMARK  167  A    between atoms: _411  and  _412
REMARK  168  A    between atoms: _416  and  _417
REMARK  169  A    between atoms: _422  and  _424
REMARK  170  A    between atoms: _424  and  _425
REMARK  171  A    between atoms: _424  and  _427
REMARK  172  A    between atoms: _427  and  _428
REMARK  173  A    between atoms: _434  and  _435
REMARK  174  A    between atoms: _440  and  _442
REMARK  175  A    between atoms: _442  and  _443
REMARK  176  A    between atoms: _445  and  _447
REMARK  177  A    between atoms: _447  and  _448
REMARK  178  A    between atoms: _447  and  _450
REMARK  179  A    between atoms: _450  and  _451
REMARK  180  A    between atoms: _454  and  _456
REMARK  181  A    between atoms: _456  and  _457
REMARK  182  A    between atoms: _456  and  _459
REMARK  183  A    between atoms: _459  and  _460
REMARK  184  A    between atoms: _460  and  _461
REMARK  185  A    between atoms: _461  and  _462
REMARK  186  A    between atoms: _462  and  _463
REMARK  187  A    between atoms: _467  and  _469
REMARK  188  A    between atoms: _469  and  _470
REMARK  189  A    between atoms: _469  and  _472
REMARK  190  A    between atoms: _475  and  _477
REMARK  191  A    between atoms: _477  and  _478
REMARK  192  A    between atoms: _481  and  _483
REMARK  193  A    between atoms: _483  and  _484
REMARK  194  A    between atoms: _483  and  _486
REMARK  195  A    between atoms: _486  and  _487
REMARK  196  A    between atoms: _490  and  _492
REMARK  197  A    between atoms: _492  and  _493
REMARK  198  A    between atoms: _492  and  _495
REMARK  199  A    between atoms: _495  and  _496
REMARK  200  A    between atoms: _502  and  _503
REMARK  201  A    between atoms: _508  and  _510
REMARK  202  A    between atoms: _510  and  _511
REMARK  203  A    between atoms: _510  and  _513
REMARK  204  A    between atoms: _513  and  _514
REMARK  205  A    between atoms: _520  and  _522
REMARK  206  A    between atoms: _522  and  _523
REMARK  207  A    between atoms: _522  and  _525
REMARK  208  A    between atoms: _525  and  _526
REMARK  209  A    between atoms: _529  and  _531
REMARK  210  A    between atoms: _531  and  _532
REMARK  211  A    between atoms: _534  and  _536
REMARK  212  A    between atoms: _536  and  _537
REMARK  213  A    between atoms: _536  and  _539
REMARK  214  A    between atoms: _539  and  _540
REMARK  215  A    between atoms: _543  and  _545
REMARK  216  A    between atoms: _545  and  _546
REMARK  217  A    between atoms: _545  and  _548
REMARK  218  A    between atoms: _548  and  _549
REMARK  219  A    between atoms: _555  and  _557
REMARK  220  A    between atoms: _557  and  _558
REMARK  221  A    between atoms: _557  and  _560
REMARK  222  A    between atoms: _560  and  _561
REMARK  223  A    between atoms: _561  and  _562
REMARK  224  A    between atoms: _567  and  _569
REMARK  225  A    between atoms: _569  and  _570
REMARK  226  A    between atoms: _569  and  _572
REMARK  227  A    between atoms: _572  and  _573
REMARK  228  A    between atoms: _576  and  _578
REMARK  229  A    between atoms: _578  and  _579
REMARK  230  A    between atoms: _578  and  _581
REMARK  231  A    between atoms: _581  and  _582
REMARK  232  A    between atoms: _584  and  _586
REMARK  233  A    between atoms: _586  and  _587
REMARK  234  A    between atoms: _586  and  _589
REMARK  235  A    between atoms: _589  and  _590
REMARK  236  A    between atoms: _596  and  _598
REMARK  237  A    between atoms: _598  and  _599
REMARK  238  A    between atoms: _598  and  _601
REMARK  239  A    between atoms: _601  and  _602
REMARK  240  A    between atoms: _607  and  _608
REMARK  241  A    between atoms: _610  and  _612
REMARK  242  A    between atoms: _612  and  _613
REMARK  243  A    between atoms: _612  and  _615
REMARK  244  A    between atoms: _615  and  _616
REMARK                            x       y       z     vdW  Elec       q    Type
REMARK                         _______ _______ _______ _____ _____    ______ ____
ROOT
ATOM      1  O   HOH     1     -13.471  -3.279  42.894  0.00  0.00    +0.000 OA
ENDROOT
TORSDOF 0
REMARK  Name = ../refined-set-2016/4ido/4ido_pocket.pdb
REMARK  244 active torsions:
REMARK  status: ('A' for Active; 'I' for Inactive)
REMARK    1  A    between atoms: _1  and  _3
REMARK    2  A    between atoms: _3  and  _4
REMARK    3  A    between atoms: _3  and  _6
REMARK    4  A    between atoms: _9  and  _11
REMARK    5  A    between atoms: _11  and  _12
REMARK    6  A    between atoms: _15  and  _17
REMARK    7  A    between atoms: _17  and  _18
REMARK    8  A    between atoms: _20  and  _22
REMARK    9  A    between atoms: _22  and  _23
REMARK   10  A    between atoms: _26  and  _28
REMARK   11  A    between atoms: _28  and  _29
REMARK   12  A    between atoms: _28  and  _31
REMARK   13  A    between atoms: _31  and  _32
REMARK   14  A    between atoms: _38  and  _40
REMARK   15  A    between atoms: _40  and  _41
REMARK   16  A    between atoms: _40  and  _43
REMARK   17  A    between atoms: _43  and  _44
REMARK   18  A    between atoms: _44  and  _45
REMARK   19  A    between atoms: _45  and  _46
REMARK   20  A    between atoms: _55  and  _57
REMARK   21  A    between atoms: _57  and  _58
REMARK   22  A    between atoms: _57  and  _60
REMARK   23  A    between atoms: _60  and  _61
REMARK   24  A    between atoms: _61  and  _62
REMARK   25  A    between atoms: _62  and  _63
REMARK   26  A    between atoms: _63  and  _64
REMARK   27  A    between atoms: _68  and  _70
REMARK   28  A    between atoms: _70  and  _71
REMARK   29  A    between atoms: _73  and  _75
REMARK   30  A    between atoms: _75  and  _76
REMARK   31  A    between atoms: _75  and  _78
REMARK   32  A    between atoms: _78  and  _79
REMARK   33  A    between atoms: _79  and  _80
REMARK   34  A    between atoms: _80  and  _81
REMARK   35  A    between atoms: _81  and  _82
REMARK   36  A    between atoms: _86  and  _88
REMARK   37  A    between atoms: _88  and  _89
REMARK   38  A    between atoms: _88  and  _91
REMARK   39  A    between atoms: _91  and  _92
REMARK   40  A    between atoms: _94  and  _96
REMARK   41  A    between atoms: _96  and  _97
REMARK   42  A    between atoms: _96  and  _99
REMARK   43  A    between atoms: _99  and  _100
REMARK   44  A    between atoms: _106  and  _108
REMARK   45  A    between atoms: _108  and  _109
REMARK   46  A    between atoms: _108  and  _111
REMARK   47  A    between atoms: _111  and  _112
REMARK   48  A    between atoms: _115  and  _117
REMARK   49  A    between atoms: _117  and  _118
REMARK   50  A    between atoms: _117  and  _120
REMARK   51  A    between atoms: _120  and  _121
REMARK   52  A    between atoms: _121  and  _122
REMARK   53  A    between atoms: _124  and  _126
REMARK   54  A    between atoms: _126  and  _127
REMARK   55  A    between atoms: _126  and  _129
REMARK   56  A    between atoms: _129  and  _130
REMARK   57  A    between atoms: _133  and  _135
REMARK   58  A    between atoms: _135  and  _136
REMARK   59  A    between atoms: _135  and  _138
REMARK   60  A    between atoms: _138  and  _139
REMARK   61  A    between atoms: _145  and  _147
REMARK   62  A    between atoms: _147  and  _148
REMARK   63  A    between atoms: _147  and  _150
REMARK   64  A    between atoms: _150  and  _151
REMARK   65  A    between atoms: _154  and  _156
REMARK   66  A    between atoms: _156  and  _157
REMARK   67  A    between atoms: _156  and  _159
REMARK   68  A    between atoms: _159  and  _160
REMARK   69  A    between atoms: _166  and  _168
REMARK   70  A    between atoms: _168  and  _169
REMARK   71  A    between atoms: _168  and  _171
REMARK   72  A    between atoms: _171  and  _172
REMARK   73  A    between atoms: _174  and  _176
REMARK   74  A    between atoms: _176  and  _177
REMARK   75  A    between atoms: _176  and  _179
REMARK   76  A    between atoms: _179  and  _180
REMARK   77  A    between atoms: _190  and  _192
REMARK   78  A    between atoms: _192  and  _193
REMARK   79  A    between atoms: _192  and  _195
REMARK   80  A    between atoms: _195  and  _196
REMARK   81  A    between atoms: _196  and  _197
REMARK   82  A    between atoms: _197  and  _198
REMARK   83  A    between atoms: _207  and  _209
REMARK   84  A    between atoms: _209  and  _210
REMARK   85  A    between atoms: _212  and  _214
REMARK   86  A    between atoms: _214  and  _215
REMARK   87  A    between atoms: _217  and  _219
REMARK   88  A    between atoms: _219  and  _220
REMARK   89  A    between atoms: _219  and  _222
REMARK   90  A    between atoms: _222  and  _223
REMARK   91  A    between atoms: _223  and  _224
REMARK   92  A    between atoms: _227  and  _229
REMARK   93  A    between atoms: _229  and  _230
REMARK   94  A    between atoms: _229  and  _232
REMARK   95  A    between atoms: _232  and  _233
REMARK   96  A    between atoms: _233  and  _234
REMARK   97  A    between atoms: _234  and  _235
REMARK   98  A    between atoms: _244  and  _246
REMARK   99  A    between atoms: _246  and  _247
REMARK  100  A    between atoms: _246  and  _249
REMARK  101  A    between atoms: _249  and  _250
REMARK  102  A    between atoms: _250  and  _251
REMARK  103  A    between atoms: _254  and  _256
REMARK  104  A    between atoms: _256  and  _257
REMARK  105  A    between atoms: _256  and  _259
REMARK  106  A    between atoms: _259  and  _260
REMARK  107  A    between atoms: _263  and  _265
REMARK  108  A    between atoms: _265  and  _266
REMARK  109  A    between atoms: _265  and  _268
REMARK  110  A    between atoms: _268  and  _269
REMARK  111  A    between atoms: _272  and  _274
REMARK  112  A    between atoms: _274  and  _275
REMARK  113  A    between atoms: _274  and  _277
REMARK  114  A    between atoms: _277  and  _278
REMARK  115  A    between atoms: _281  and  _283
REMARK  116  A    between atoms: _283  and  _284
REMARK  117  A    between atoms: _283  and  _286
REMARK  118  A    between atoms: _286  and  _287
REMARK  119  A    between atoms: _287  and  _288
REMARK  120  A    between atoms: _293  and  _295
REMARK  121  A    between atoms: _295  and  _296
REMARK  122  A    between atoms: _298  and  _300
REMARK  123  A    between atoms: _300  and  _301
REMARK  124  A    between atoms: _300  and  _303
REMARK  125  A    between atoms: _303  and  _304
REMARK  126  A    between atoms: _307  and  _309
REMARK  127  A    between atoms: _309  and  _310
REMARK  128  A    between atoms: _309  and  _312
REMARK  129  A    between atoms: _312  and  _313
REMARK  130  A    between atoms: _318  and  _320
REMARK  131  A    between atoms: _320  and  _321
REMARK  132  A    between atoms: _320  and  _323
REMARK  133  A    between atoms: _323  and  _324
REMARK  134  A    between atoms: _327  and  _329
REMARK  135  A    between atoms: _329  and  _330
REMARK  136  A    between atoms: _329  and  _332
REMARK  137  A    between atoms: _332  and  _333
REMARK  138  A    between atoms: _335  and  _337
REMARK  139  A    between atoms: _337  and  _338
REMARK  140  A    between atoms: _337  and  _340
REMARK  141  A    between atoms: _340  and  _341
REMARK  142  A    between atoms: _341  and  _342
REMARK  143  A    between atoms: _347  and  _349
REMARK  144  A    between atoms: _349  and  _350
REMARK  145  A    between atoms: _349  and  _352
REMARK  146  A    between atoms: _352  and  _353
REMARK  147  A    between atoms: _356  and  _358
REMARK  148  A    between atoms: _358  and  _359
REMARK  149  A    between atoms: _358  and  _361
REMARK  150  A    between atoms: _364  and  _366
REMARK  151  A    between atoms: _366  and  _367
REMARK  152  A    between atoms: _366  and  _369
REMARK  153  A    between atoms: _369  and  _370
REMARK  154  A    between atoms: _370  and  _371
REMARK  155  A    between atoms: _371  and  _372
REMARK  156  A    between atoms: _381  and  _383
REMARK  157  A    between atoms: _383  and  _384
REMARK  158  A    between atoms: _383  and  _386
REMARK  159  A    between atoms: _386  and  _387
REMARK  160  A    between atoms: _390  and  _392
REMARK  161  A    between atoms: _392  and  _393
REMARK  162  A    between atoms: _392  and  _395
REMARK  163  A    between atoms: _395  and  _396
REMARK  164  A    between atoms: _406  and  _408
REMARK  165  A    between atoms: _408  and  _409
REMARK  166  A    between atoms: _408  and  _411
REMARK  167  A    between atoms: _411  and  _412
REMARK  168  A    between atoms: _416  and  _417
REMARK  169  A    between atoms: _422  and  _424
REMARK  170  A    between atoms: _424  and  _425
REMARK  171  A    between atoms: _424  and  _427
REMARK  172  A    between atoms: _427  and  _428
REMARK  173  A    between atoms: _434  and  _435
REMARK  174  A    between atoms: _440  and  _442
REMARK  175  A    between atoms: _442  and  _443
REMARK  176  A    between atoms: _445  and  _447
REMARK  177  A    between atoms: _447  and  _448
REMARK  178  A    between atoms: _447  and  _450
REMARK  179  A    between atoms: _450  and  _451
REMARK  180  A    between atoms: _454  and  _456
REMARK  181  A    between atoms: _456  and  _457
REMARK  182  A    between atoms: _456  and  _459
REMARK  183  A    between atoms: _459  and  _460
REMARK  184  A    between atoms: _460  and  _461
REMARK  185  A    between atoms: _461  and  _462
REMARK  186  A    between atoms: _462  and  _463
REMARK  187  A    between atoms: _467  and  _469
REMARK  188  A    between atoms: _469  and  _470
REMARK  189  A    between atoms: _469  and  _472
REMARK  190  A    between atoms: _475  and  _477
REMARK  191  A    between atoms: _477  and  _478
REMARK  192  A    between atoms: _481  and  _483
REMARK  193  A    between atoms: _483  and  _484
REMARK  194  A    between atoms: _483  and  _486
REMARK  195  A    between atoms: _486  and  _487
REMARK  196  A    between atoms: _490  and  _492
REMARK  197  A    between atoms: _492  and  _493
REMARK  198  A    between atoms: _492  and  _495
REMARK  199  A    between atoms: _495  and  _496
REMARK  200  A    between atoms: _502  and  _503
REMARK  201  A    between atoms: _508  and  _510
REMARK  202  A    between atoms: _510  and  _511
REMARK  203  A    between atoms: _510  and  _513
REMARK  204  A    between atoms: _513  and  _514
REMARK  205  A    between atoms: _520  and  _522
REMARK  206  A    between atoms: _522  and  _523
REMARK  207  A    between atoms: _522  and  _525
REMARK  208  A    between atoms: _525  and  _526
REMARK  209  A    between atoms: _529  and  _531
REMARK  210  A    between atoms: _531  and  _532
REMARK  211  A    between atoms: _534  and  _536
REMARK  212  A    between atoms: _536  and  _537
REMARK  213  A    between atoms: _536  and  _539
REMARK  214  A    between atoms: _539  and  _540
REMARK  215  A    between atoms: _543  and  _545
REMARK  216  A    between atoms: _545  and  _546
REMARK  217  A    between atoms: _545  and  _548
REMARK  218  A    between atoms: _548  and  _549
REMARK  219  A    between atoms: _555  and  _557
REMARK  220  A    between atoms: _557  and  _558
REMARK  221  A    between atoms: _557  and  _560
REMARK  222  A    between atoms: _560  and  _561
REMARK  223  A    between atoms: _561  and  _562
REMARK  224  A    between atoms: _567  and  _569
REMARK  225  A    between atoms: _569  and  _570
REMARK  226  A    between atoms: _569  and  _572
REMARK  227  A    between atoms: _572  and  _573
REMARK  228  A    between atoms: _576  and  _578
REMARK  229  A    between atoms: _578  and  _579
REMARK  230  A    between atoms: _578  and  _581
REMARK  231  A    between atoms: _581  and  _582
REMARK  232  A    between atoms: _584  and  _586
REMARK  233  A    between atoms: _586  and  _587
REMARK  234  A    between atoms: _586  and  _589
REMARK  235  A    between atoms: _589  and  _590
REMARK  236  A    between atoms: _596  and  _598
REMARK  237  A    between atoms: _598  and  _599
REMARK  238  A    between atoms: _598  and  _601
REMARK  239  A    between atoms: _601  and  _602
REMARK  240  A    between atoms: _607  and  _608
REMARK  241  A    between atoms: _610  and  _612
REMARK  242  A    between atoms: _612  and  _613
REMARK  243  A    between atoms: _612  and  _615
REMARK  244  A    between atoms: _615  and  _616
REMARK                            x       y       z     vdW  Elec       q    Type
REMARK                         _______ _______ _______ _____ _____    ______ ____
ROOT
ATOM      1  O   HOH     1      -9.803   1.034  47.571  0.00  0.00    +0.000 OA
ENDROOT
TORSDOF 0
REMARK  Name = ../refined-set-2016/4ido/4ido_pocket.pdb
REMARK  244 active torsions:
REMARK  status: ('A' for Active; 'I' for Inactive)
REMARK    1  A    between atoms: _1  and  _3
REMARK    2  A    between atoms: _3  and  _4
REMARK    3  A    between atoms: _3  and  _6
REMARK    4  A    between atoms: _9  and  _11
REMARK    5  A    between atoms: _11  and  _12
REMARK    6  A    between atoms: _15  and  _17
REMARK    7  A    between atoms: _17  and  _18
REMARK    8  A    between atoms: _20  and  _22
REMARK    9  A    between atoms: _22  and  _23
REMARK   10  A    between atoms: _26  and  _28
REMARK   11  A    between atoms: _28  and  _29
REMARK   12  A    between atoms: _28  and  _31
REMARK   13  A    between atoms: _31  and  _32
REMARK   14  A    between atoms: _38  and  _40
REMARK   15  A    between atoms: _40  and  _41
REMARK   16  A    between atoms: _40  and  _43
REMARK   17  A    between atoms: _43  and  _44
REMARK   18  A    between atoms: _44  and  _45
REMARK   19  A    between atoms: _45  and  _46
REMARK   20  A    between atoms: _55  and  _57
REMARK   21  A    between atoms: _57  and  _58
REMARK   22  A    between atoms: _57  and  _60
REMARK   23  A    between atoms: _60  and  _61
REMARK   24  A    between atoms: _61  and  _62
REMARK   25  A    between atoms: _62  and  _63
REMARK   26  A    between atoms: _63  and  _64
REMARK   27  A    between atoms: _68  and  _70
REMARK   28  A    between atoms: _70  and  _71
REMARK   29  A    between atoms: _73  and  _75
REMARK   30  A    between atoms: _75  and  _76
REMARK   31  A    between atoms: _75  and  _78
REMARK   32  A    between atoms: _78  and  _79
REMARK   33  A    between atoms: _79  and  _80
REMARK   34  A    between atoms: _80  and  _81
REMARK   35  A    between atoms: _81  and  _82
REMARK   36  A    between atoms: _86  and  _88
REMARK   37  A    between atoms: _88  and  _89
REMARK   38  A    between atoms: _88  and  _91
REMARK   39  A    between atoms: _91  and  _92
REMARK   40  A    between atoms: _94  and  _96
REMARK   41  A    between atoms: _96  and  _97
REMARK   42  A    between atoms: _96  and  _99
REMARK   43  A    between atoms: _99  and  _100
REMARK   44  A    between atoms: _106  and  _108
REMARK   45  A    between atoms: _108  and  _109
REMARK   46  A    between atoms: _108  and  _111
REMARK   47  A    between atoms: _111  and  _112
REMARK   48  A    between atoms: _115  and  _117
REMARK   49  A    between atoms: _117  and  _118
REMARK   50  A    between atoms: _117  and  _120
REMARK   51  A    between atoms: _120  and  _121
REMARK   52  A    between atoms: _121  and  _122
REMARK   53  A    between atoms: _124  and  _126
REMARK   54  A    between atoms: _126  and  _127
REMARK   55  A    between atoms: _126  and  _129
REMARK   56  A    between atoms: _129  and  _130
REMARK   57  A    between atoms: _133  and  _135
REMARK   58  A    between atoms: _135  and  _136
REMARK   59  A    between atoms: _135  and  _138
REMARK   60  A    between atoms: _138  and  _139
REMARK   61  A    between atoms: _145  and  _147
REMARK   62  A    between atoms: _147  and  _148
REMARK   63  A    between atoms: _147  and  _150
REMARK   64  A    between atoms: _150  and  _151
REMARK   65  A    between atoms: _154  and  _156
REMARK   66  A    between atoms: _156  and  _157
REMARK   67  A    between atoms: _156  and  _159
REMARK   68  A    between atoms: _159  and  _160
REMARK   69  A    between atoms: _166  and  _168
REMARK   70  A    between atoms: _168  and  _169
REMARK   71  A    between atoms: _168  and  _171
REMARK   72  A    between atoms: _171  and  _172
REMARK   73  A    between atoms: _174  and  _176
REMARK   74  A    between atoms: _176  and  _177
REMARK   75  A    between atoms: _176  and  _179
REMARK   76  A    between atoms: _179  and  _180
REMARK   77  A    between atoms: _190  and  _192
REMARK   78  A    between atoms: _192  and  _193
REMARK   79  A    between atoms: _192  and  _195
REMARK   80  A    between atoms: _195  and  _196
REMARK   81  A    between atoms: _196  and  _197
REMARK   82  A    between atoms: _197  and  _198
REMARK   83  A    between atoms: _207  and  _209
REMARK   84  A    between atoms: _209  and  _210
REMARK   85  A    between atoms: _212  and  _214
REMARK   86  A    between atoms: _214  and  _215
REMARK   87  A    between atoms: _217  and  _219
REMARK   88  A    between atoms: _219  and  _220
REMARK   89  A    between atoms: _219  and  _222
REMARK   90  A    between atoms: _222  and  _223
REMARK   91  A    between atoms: _223  and  _224
REMARK   92  A    between atoms: _227  and  _229
REMARK   93  A    between atoms: _229  and  _230
REMARK   94  A    between atoms: _229  and  _232
REMARK   95  A    between atoms: _232  and  _233
REMARK   96  A    between atoms: _233  and  _234
REMARK   97  A    between atoms: _234  and  _235
REMARK   98  A    between atoms: _244  and  _246
REMARK   99  A    between atoms: _246  and  _247
REMARK  100  A    between atoms: _246  and  _249
REMARK  101  A    between atoms: _249  and  _250
REMARK  102  A    between atoms: _250  and  _251
REMARK  103  A    between atoms: _254  and  _256
REMARK  104  A    between atoms: _256  and  _257
REMARK  105  A    between atoms: _256  and  _259
REMARK  106  A    between atoms: _259  and  _260
REMARK  107  A    between atoms: _263  and  _265
REMARK  108  A    between atoms: _265  and  _266
REMARK  109  A    between atoms: _265  and  _268
REMARK  110  A    between atoms: _268  and  _269
REMARK  111  A    between atoms: _272  and  _274
REMARK  112  A    between atoms: _274  and  _275
REMARK  113  A    between atoms: _274  and  _277
REMARK  114  A    between atoms: _277  and  _278
REMARK  115  A    between atoms: _281  and  _283
REMARK  116  A    between atoms: _283  and  _284
REMARK  117  A    between atoms: _283  and  _286
REMARK  118  A    between atoms: _286  and  _287
REMARK  119  A    between atoms: _287  and  _288
REMARK  120  A    between atoms: _293  and  _295
REMARK  121  A    between atoms: _295  and  _296
REMARK  122  A    between atoms: _298  and  _300
REMARK  123  A    between atoms: _300  and  _301
REMARK  124  A    between atoms: _300  and  _303
REMARK  125  A    between atoms: _303  and  _304
REMARK  126  A    between atoms: _307  and  _309
REMARK  127  A    between atoms: _309  and  _310
REMARK  128  A    between atoms: _309  and  _312
REMARK  129  A    between atoms: _312  and  _313
REMARK  130  A    between atoms: _318  and  _320
REMARK  131  A    between atoms: _320  and  _321
REMARK  132  A    between atoms: _320  and  _323
REMARK  133  A    between atoms: _323  and  _324
REMARK  134  A    between atoms: _327  and  _329
REMARK  135  A    between atoms: _329  and  _330
REMARK  136  A    between atoms: _329  and  _332
REMARK  137  A    between atoms: _332  and  _333
REMARK  138  A    between atoms: _335  and  _337
REMARK  139  A    between atoms: _337  and  _338
REMARK  140  A    between atoms: _337  and  _340
REMARK  141  A    between atoms: _340  and  _341
REMARK  142  A    between atoms: _341  and  _342
REMARK  143  A    between atoms: _347  and  _349
REMARK  144  A    between atoms: _349  and  _350
REMARK  145  A    between atoms: _349  and  _352
REMARK  146  A    between atoms: _352  and  _353
REMARK  147  A    between atoms: _356  and  _358
REMARK  148  A    between atoms: _358  and  _359
REMARK  149  A    between atoms: _358  and  _361
REMARK  150  A    between atoms: _364  and  _366
REMARK  151  A    between atoms: _366  and  _367
REMARK  152  A    between atoms: _366  and  _369
REMARK  153  A    between atoms: _369  and  _370
REMARK  154  A    between atoms: _370  and  _371
REMARK  155  A    between atoms: _371  and  _372
REMARK  156  A    between atoms: _381  and  _383
REMARK  157  A    between atoms: _383  and  _384
REMARK  158  A    between atoms: _383  and  _386
REMARK  159  A    between atoms: _386  and  _387
REMARK  160  A    between atoms: _390  and  _392
REMARK  161  A    between atoms: _392  and  _393
REMARK  162  A    between atoms: _392  and  _395
REMARK  163  A    between atoms: _395  and  _396
REMARK  164  A    between atoms: _406  and  _408
REMARK  165  A    between atoms: _408  and  _409
REMARK  166  A    between atoms: _408  and  _411
REMARK  167  A    between atoms: _411  and  _412
REMARK  168  A    between atoms: _416  and  _417
REMARK  169  A    between atoms: _422  and  _424
REMARK  170  A    between atoms: _424  and  _425
REMARK  171  A    between atoms: _424  and  _427
REMARK  172  A    between atoms: _427  and  _428
REMARK  173  A    between atoms: _434  and  _435
REMARK  174  A    between atoms: _440  and  _442
REMARK  175  A    between atoms: _442  and  _443
REMARK  176  A    between atoms: _445  and  _447
REMARK  177  A    between atoms: _447  and  _448
REMARK  178  A    between atoms: _447  and  _450
REMARK  179  A    between atoms: _450  and  _451
REMARK  180  A    between atoms: _454  and  _456
REMARK  181  A    between atoms: _456  and  _457
REMARK  182  A    between atoms: _456  and  _459
REMARK  183  A    between atoms: _459  and  _460
REMARK  184  A    between atoms: _460  and  _461
REMARK  185  A    between atoms: _461  and  _462
REMARK  186  A    between atoms: _462  and  _463
REMARK  187  A    between atoms: _467  and  _469
REMARK  188  A    between atoms: _469  and  _470
REMARK  189  A    between atoms: _469  and  _472
REMARK  190  A    between atoms: _475  and  _477
REMARK  191  A    between atoms: _477  and  _478
REMARK  192  A    between atoms: _481  and  _483
REMARK  193  A    between atoms: _483  and  _484
REMARK  194  A    between atoms: _483  and  _486
REMARK  195  A    between atoms: _486  and  _487
REMARK  196  A    between atoms: _490  and  _492
REMARK  197  A    between atoms: _492  and  _493
REMARK  198  A    between atoms: _492  and  _495
REMARK  199  A    between atoms: _495  and  _496
REMARK  200  A    between atoms: _502  and  _503
REMARK  201  A    between atoms: _508  and  _510
REMARK  202  A    between atoms: _510  and  _511
REMARK  203  A    between atoms: _510  and  _513
REMARK  204  A    between atoms: _513  and  _514
REMARK  205  A    between atoms: _520  and  _522
REMARK  206  A    between atoms: _522  and  _523
REMARK  207  A    between atoms: _522  and  _525
REMARK  208  A    between atoms: _525  and  _526
REMARK  209  A    between atoms: _529  and  _531
REMARK  210  A    between atoms: _531  and  _532
REMARK  211  A    between atoms: _534  and  _536
REMARK  212  A    between atoms: _536  and  _537
REMARK  213  A    between atoms: _536  and  _539
REMARK  214  A    between atoms: _539  and  _540
REMARK  215  A    between atoms: _543  and  _545
REMARK  216  A    between atoms: _545  and  _546
REMARK  217  A    between atoms: _545  and  _548
REMARK  218  A    between atoms: _548  and  _549
REMARK  219  A    between atoms: _555  and  _557
REMARK  220  A    between atoms: _557  and  _558
REMARK  221  A    between atoms: _557  and  _560
REMARK  222  A    between atoms: _560  and  _561
REMARK  223  A    between atoms: _561  and  _562
REMARK  224  A    between atoms: _567  and  _569
REMARK  225  A    between atoms: _569  and  _570
REMARK  226  A    between atoms: _569  and  _572
REMARK  227  A    between atoms: _572  and  _573
REMARK  228  A    between atoms: _576  and  _578
REMARK  229  A    between atoms: _578  and  _579
REMARK  230  A    between atoms: _578  and  _581
REMARK  231  A    between atoms: _581  and  _582
REMARK  232  A    between atoms: _584  and  _586
REMARK  233  A    between atoms: _586  and  _587
REMARK  234  A    between atoms: _586  and  _589
REMARK  235  A    between atoms: _589  and  _590
REMARK  236  A    between atoms: _596  and  _598
REMARK  237  A    between atoms: _598  and  _599
REMARK  238  A    between atoms: _598  and  _601
REMARK  239  A    between atoms: _601  and  _602
REMARK  240  A    between atoms: _607  and  _608
REMARK  241  A    between atoms: _610  and  _612
REMARK  242  A    between atoms: _612  and  _613
REMARK  243  A    between atoms: _612  and  _615
REMARK  244  A    between atoms: _615  and  _616
REMARK                            x       y       z     vdW  Elec       q    Type
REMARK                         _______ _______ _______ _____ _____    ______ ____
ROOT
ATOM      1  O   HOH     1     -22.427  -7.508  46.396  0.00  0.00    +0.000 OA
ENDROOT
TORSDOF 0
REMARK  Name = ../refined-set-2016/4ido/4ido_pocket.pdb
REMARK  244 active torsions:
REMARK  status: ('A' for Active; 'I' for Inactive)
REMARK    1  A    between atoms: _1  and  _3
REMARK    2  A    between atoms: _3  and  _4
REMARK    3  A    between atoms: _3  and  _6
REMARK    4  A    between atoms: _9  and  _11
REMARK    5  A    between atoms: _11  and  _12
REMARK    6  A    between atoms: _15  and  _17
REMARK    7  A    between atoms: _17  and  _18
REMARK    8  A    between atoms: _20  and  _22
REMARK    9  A    between atoms: _22  and  _23
REMARK   10  A    between atoms: _26  and  _28
REMARK   11  A    between atoms: _28  and  _29
REMARK   12  A    between atoms: _28  and  _31
REMARK   13  A    between atoms: _31  and  _32
REMARK   14  A    between atoms: _38  and  _40
REMARK   15  A    between atoms: _40  and  _41
REMARK   16  A    between atoms: _40  and  _43
REMARK   17  A    between atoms: _43  and  _44
REMARK   18  A    between atoms: _44  and  _45
REMARK   19  A    between atoms: _45  and  _46
REMARK   20  A    between atoms: _55  and  _57
REMARK   21  A    between atoms: _57  and  _58
REMARK   22  A    between atoms: _57  and  _60
REMARK   23  A    between atoms: _60  and  _61
REMARK   24  A    between atoms: _61  and  _62
REMARK   25  A    between atoms: _62  and  _63
REMARK   26  A    between atoms: _63  and  _64
REMARK   27  A    between atoms: _68  and  _70
REMARK   28  A    between atoms: _70  and  _71
REMARK   29  A    between atoms: _73  and  _75
REMARK   30  A    between atoms: _75  and  _76
REMARK   31  A    between atoms: _75  and  _78
REMARK   32  A    between atoms: _78  and  _79
REMARK   33  A    between atoms: _79  and  _80
REMARK   34  A    between atoms: _80  and  _81
REMARK   35  A    between atoms: _81  and  _82
REMARK   36  A    between atoms: _86  and  _88
REMARK   37  A    between atoms: _88  and  _89
REMARK   38  A    between atoms: _88  and  _91
REMARK   39  A    between atoms: _91  and  _92
REMARK   40  A    between atoms: _94  and  _96
REMARK   41  A    between atoms: _96  and  _97
REMARK   42  A    between atoms: _96  and  _99
REMARK   43  A    between atoms: _99  and  _100
REMARK   44  A    between atoms: _106  and  _108
REMARK   45  A    between atoms: _108  and  _109
REMARK   46  A    between atoms: _108  and  _111
REMARK   47  A    between atoms: _111  and  _112
REMARK   48  A    between atoms: _115  and  _117
REMARK   49  A    between atoms: _117  and  _118
REMARK   50  A    between atoms: _117  and  _120
REMARK   51  A    between atoms: _120  and  _121
REMARK   52  A    between atoms: _121  and  _122
REMARK   53  A    between atoms: _124  and  _126
REMARK   54  A    between atoms: _126  and  _127
REMARK   55  A    between atoms: _126  and  _129
REMARK   56  A    between atoms: _129  and  _130
REMARK   57  A    between atoms: _133  and  _135
REMARK   58  A    between atoms: _135  and  _136
REMARK   59  A    between atoms: _135  and  _138
REMARK   60  A    between atoms: _138  and  _139
REMARK   61  A    between atoms: _145  and  _147
REMARK   62  A    between atoms: _147  and  _148
REMARK   63  A    between atoms: _147  and  _150
REMARK   64  A    between atoms: _150  and  _151
REMARK   65  A    between atoms: _154  and  _156
REMARK   66  A    between atoms: _156  and  _157
REMARK   67  A    between atoms: _156  and  _159
REMARK   68  A    between atoms: _159  and  _160
REMARK   69  A    between atoms: _166  and  _168
REMARK   70  A    between atoms: _168  and  _169
REMARK   71  A    between atoms: _168  and  _171
REMARK   72  A    between atoms: _171  and  _172
REMARK   73  A    between atoms: _174  and  _176
REMARK   74  A    between atoms: _176  and  _177
REMARK   75  A    between atoms: _176  and  _179
REMARK   76  A    between atoms: _179  and  _180
REMARK   77  A    between atoms: _190  and  _192
REMARK   78  A    between atoms: _192  and  _193
REMARK   79  A    between atoms: _192  and  _195
REMARK   80  A    between atoms: _195  and  _196
REMARK   81  A    between atoms: _196  and  _197
REMARK   82  A    between atoms: _197  and  _198
REMARK   83  A    between atoms: _207  and  _209
REMARK   84  A    between atoms: _209  and  _210
REMARK   85  A    between atoms: _212  and  _214
REMARK   86  A    between atoms: _214  and  _215
REMARK   87  A    between atoms: _217  and  _219
REMARK   88  A    between atoms: _219  and  _220
REMARK   89  A    between atoms: _219  and  _222
REMARK   90  A    between atoms: _222  and  _223
REMARK   91  A    between atoms: _223  and  _224
REMARK   92  A    between atoms: _227  and  _229
REMARK   93  A    between atoms: _229  and  _230
REMARK   94  A    between atoms: _229  and  _232
REMARK   95  A    between atoms: _232  and  _233
REMARK   96  A    between atoms: _233  and  _234
REMARK   97  A    between atoms: _234  and  _235
REMARK   98  A    between atoms: _244  and  _246
REMARK   99  A    between atoms: _246  and  _247
REMARK  100  A    between atoms: _246  and  _249
REMARK  101  A    between atoms: _249  and  _250
REMARK  102  A    between atoms: _250  and  _251
REMARK  103  A    between atoms: _254  and  _256
REMARK  104  A    between atoms: _256  and  _257
REMARK  105  A    between atoms: _256  and  _259
REMARK  106  A    between atoms: _259  and  _260
REMARK  107  A    between atoms: _263  and  _265
REMARK  108  A    between atoms: _265  and  _266
REMARK  109  A    between atoms: _265  and  _268
REMARK  110  A    between atoms: _268  and  _269
REMARK  111  A    between atoms: _272  and  _274
REMARK  112  A    between atoms: _274  and  _275
REMARK  113  A    between atoms: _274  and  _277
REMARK  114  A    between atoms: _277  and  _278
REMARK  115  A    between atoms: _281  and  _283
REMARK  116  A    between atoms: _283  and  _284
REMARK  117  A    between atoms: _283  and  _286
REMARK  118  A    between atoms: _286  and  _287
REMARK  119  A    between atoms: _287  and  _288
REMARK  120  A    between atoms: _293  and  _295
REMARK  121  A    between atoms: _295  and  _296
REMARK  122  A    between atoms: _298  and  _300
REMARK  123  A    between atoms: _300  and  _301
REMARK  124  A    between atoms: _300  and  _303
REMARK  125  A    between atoms: _303  and  _304
REMARK  126  A    between atoms: _307  and  _309
REMARK  127  A    between atoms: _309  and  _310
REMARK  128  A    between atoms: _309  and  _312
REMARK  129  A    between atoms: _312  and  _313
REMARK  130  A    between atoms: _318  and  _320
REMARK  131  A    between atoms: _320  and  _321
REMARK  132  A    between atoms: _320  and  _323
REMARK  133  A    between atoms: _323  and  _324
REMARK  134  A    between atoms: _327  and  _329
REMARK  135  A    between atoms: _329  and  _330
REMARK  136  A    between atoms: _329  and  _332
REMARK  137  A    between atoms: _332  and  _333
REMARK  138  A    between atoms: _335  and  _337
REMARK  139  A    between atoms: _337  and  _338
REMARK  140  A    between atoms: _337  and  _340
REMARK  141  A    between atoms: _340  and  _341
REMARK  142  A    between atoms: _341  and  _342
REMARK  143  A    between atoms: _347  and  _349
REMARK  144  A    between atoms: _349  and  _350
REMARK  145  A    between atoms: _349  and  _352
REMARK  146  A    between atoms: _352  and  _353
REMARK  147  A    between atoms: _356  and  _358
REMARK  148  A    between atoms: _358  and  _359
REMARK  149  A    between atoms: _358  and  _361
REMARK  150  A    between atoms: _364  and  _366
REMARK  151  A    between atoms: _366  and  _367
REMARK  152  A    between atoms: _366  and  _369
REMARK  153  A    between atoms: _369  and  _370
REMARK  154  A    between atoms: _370  and  _371
REMARK  155  A    between atoms: _371  and  _372
REMARK  156  A    between atoms: _381  and  _383
REMARK  157  A    between atoms: _383  and  _384
REMARK  158  A    between atoms: _383  and  _386
REMARK  159  A    between atoms: _386  and  _387
REMARK  160  A    between atoms: _390  and  _392
REMARK  161  A    between atoms: _392  and  _393
REMARK  162  A    between atoms: _392  and  _395
REMARK  163  A    between atoms: _395  and  _396
REMARK  164  A    between atoms: _406  and  _408
REMARK  165  A    between atoms: _408  and  _409
REMARK  166  A    between atoms: _408  and  _411
REMARK  167  A    between atoms: _411  and  _412
REMARK  168  A    between atoms: _416  and  _417
REMARK  169  A    between atoms: _422  and  _424
REMARK  170  A    between atoms: _424  and  _425
REMARK  171  A    between atoms: _424  and  _427
REMARK  172  A    between atoms: _427  and  _428
REMARK  173  A    between atoms: _434  and  _435
REMARK  174  A    between atoms: _440  and  _442
REMARK  175  A    between atoms: _442  and  _443
REMARK  176  A    between atoms: _445  and  _447
REMARK  177  A    between atoms: _447  and  _448
REMARK  178  A    between atoms: _447  and  _450
REMARK  179  A    between atoms: _450  and  _451
REMARK  180  A    between atoms: _454  and  _456
REMARK  181  A    between atoms: _456  and  _457
REMARK  182  A    between atoms: _456  and  _459
REMARK  183  A    between atoms: _459  and  _460
REMARK  184  A    between atoms: _460  and  _461
REMARK  185  A    between atoms: _461  and  _462
REMARK  186  A    between atoms: _462  and  _463
REMARK  187  A    between atoms: _467  and  _469
REMARK  188  A    between atoms: _469  and  _470
REMARK  189  A    between atoms: _469  and  _472
REMARK  190  A    between atoms: _475  and  _477
REMARK  191  A    between atoms: _477  and  _478
REMARK  192  A    between atoms: _481  and  _483
REMARK  193  A    between atoms: _483  and  _484
REMARK  194  A    between atoms: _483  and  _486
REMARK  195  A    between atoms: _486  and  _487
REMARK  196  A    between atoms: _490  and  _492
REMARK  197  A    between atoms: _492  and  _493
REMARK  198  A    between atoms: _492  and  _495
REMARK  199  A    between atoms: _495  and  _496
REMARK  200  A    between atoms: _502  and  _503
REMARK  201  A    between atoms: _508  and  _510
REMARK  202  A    between atoms: _510  and  _511
REMARK  203  A    between atoms: _510  and  _513
REMARK  204  A    between atoms: _513  and  _514
REMARK  205  A    between atoms: _520  and  _522
REMARK  206  A    between atoms: _522  and  _523
REMARK  207  A    between atoms: _522  and  _525
REMARK  208  A    between atoms: _525  and  _526
REMARK  209  A    between atoms: _529  and  _531
REMARK  210  A    between atoms: _531  and  _532
REMARK  211  A    between atoms: _534  and  _536
REMARK  212  A    between atoms: _536  and  _537
REMARK  213  A    between atoms: _536  and  _539
REMARK  214  A    between atoms: _539  and  _540
REMARK  215  A    between atoms: _543  and  _545
REMARK  216  A    between atoms: _545  and  _546
REMARK  217  A    between atoms: _545  and  _548
REMARK  218  A    between atoms: _548  and  _549
REMARK  219  A    between atoms: _555  and  _557
REMARK  220  A    between atoms: _557  and  _558
REMARK  221  A    between atoms: _557  and  _560
REMARK  222  A    between atoms: _560  and  _561
REMARK  223  A    between atoms: _561  and  _562
REMARK  224  A    between atoms: _567  and  _569
REMARK  225  A    between atoms: _569  and  _570
REMARK  226  A    between atoms: _569  and  _572
REMARK  227  A    between atoms: _572  and  _573
REMARK  228  A    between atoms: _576  and  _578
REMARK  229  A    between atoms: _578  and  _579
REMARK  230  A    between atoms: _578  and  _581
REMARK  231  A    between atoms: _581  and  _582
REMARK  232  A    between atoms: _584  and  _586
REMARK  233  A    between atoms: _586  and  _587
REMARK  234  A    between atoms: _586  and  _589
REMARK  235  A    between atoms: _589  and  _590
REMARK  236  A    between atoms: _596  and  _598
REMARK  237  A    between atoms: _598  and  _599
REMARK  238  A    between atoms: _598  and  _601
REMARK  239  A    between atoms: _601  and  _602
REMARK  240  A    between atoms: _607  and  _608
REMARK  241  A    between atoms: _610  and  _612
REMARK  242  A    between atoms: _612  and  _613
REMARK  243  A    between atoms: _612  and  _615
REMARK  244  A    between atoms: _615  and  _616
REMARK                            x       y       z     vdW  Elec       q    Type
REMARK                         _______ _______ _______ _____ _____    ______ ____
ROOT
ATOM      1  O   HOH     1     -22.687   7.602  41.519  0.00  0.00    +0.000 OA
ENDROOT
TORSDOF 0
REMARK  Name = ../refined-set-2016/4ido/4ido_pocket.pdb
REMARK  244 active torsions:
REMARK  status: ('A' for Active; 'I' for Inactive)
REMARK    1  A    between atoms: _1  and  _3
REMARK    2  A    between atoms: _3  and  _4
REMARK    3  A    between atoms: _3  and  _6
REMARK    4  A    between atoms: _9  and  _11
REMARK    5  A    between atoms: _11  and  _12
REMARK    6  A    between atoms: _15  and  _17
REMARK    7  A    between atoms: _17  and  _18
REMARK    8  A    between atoms: _20  and  _22
REMARK    9  A    between atoms: _22  and  _23
REMARK   10  A    between atoms: _26  and  _28
REMARK   11  A    between atoms: _28  and  _29
REMARK   12  A    between atoms: _28  and  _31
REMARK   13  A    between atoms: _31  and  _32
REMARK   14  A    between atoms: _38  and  _40
REMARK   15  A    between atoms: _40  and  _41
REMARK   16  A    between atoms: _40  and  _43
REMARK   17  A    between atoms: _43  and  _44
REMARK   18  A    between atoms: _44  and  _45
REMARK   19  A    between atoms: _45  and  _46
REMARK   20  A    between atoms: _55  and  _57
REMARK   21  A    between atoms: _57  and  _58
REMARK   22  A    between atoms: _57  and  _60
REMARK   23  A    between atoms: _60  and  _61
REMARK   24  A    between atoms: _61  and  _62
REMARK   25  A    between atoms: _62  and  _63
REMARK   26  A    between atoms: _63  and  _64
REMARK   27  A    between atoms: _68  and  _70
REMARK   28  A    between atoms: _70  and  _71
REMARK   29  A    between atoms: _73  and  _75
REMARK   30  A    between atoms: _75  and  _76
REMARK   31  A    between atoms: _75  and  _78
REMARK   32  A    between atoms: _78  and  _79
REMARK   33  A    between atoms: _79  and  _80
REMARK   34  A    between atoms: _80  and  _81
REMARK   35  A    between atoms: _81  and  _82
REMARK   36  A    between atoms: _86  and  _88
REMARK   37  A    between atoms: _88  and  _89
REMARK   38  A    between atoms: _88  and  _91
REMARK   39  A    between atoms: _91  and  _92
REMARK   40  A    between atoms: _94  and  _96
REMARK   41  A    between atoms: _96  and  _97
REMARK   42  A    between atoms: _96  and  _99
REMARK   43  A    between atoms: _99  and  _100
REMARK   44  A    between atoms: _106  and  _108
REMARK   45  A    between atoms: _108  and  _109
REMARK   46  A    between atoms: _108  and  _111
REMARK   47  A    between atoms: _111  and  _112
REMARK   48  A    between atoms: _115  and  _117
REMARK   49  A    between atoms: _117  and  _118
REMARK   50  A    between atoms: _117  and  _120
REMARK   51  A    between atoms: _120  and  _121
REMARK   52  A    between atoms: _121  and  _122
REMARK   53  A    between atoms: _124  and  _126
REMARK   54  A    between atoms: _126  and  _127
REMARK   55  A    between atoms: _126  and  _129
REMARK   56  A    between atoms: _129  and  _130
REMARK   57  A    between atoms: _133  and  _135
REMARK   58  A    between atoms: _135  and  _136
REMARK   59  A    between atoms: _135  and  _138
REMARK   60  A    between atoms: _138  and  _139
REMARK   61  A    between atoms: _145  and  _147
REMARK   62  A    between atoms: _147  and  _148
REMARK   63  A    between atoms: _147  and  _150
REMARK   64  A    between atoms: _150  and  _151
REMARK   65  A    between atoms: _154  and  _156
REMARK   66  A    between atoms: _156  and  _157
REMARK   67  A    between atoms: _156  and  _159
REMARK   68  A    between atoms: _159  and  _160
REMARK   69  A    between atoms: _166  and  _168
REMARK   70  A    between atoms: _168  and  _169
REMARK   71  A    between atoms: _168  and  _171
REMARK   72  A    between atoms: _171  and  _172
REMARK   73  A    between atoms: _174  and  _176
REMARK   74  A    between atoms: _176  and  _177
REMARK   75  A    between atoms: _176  and  _179
REMARK   76  A    between atoms: _179  and  _180
REMARK   77  A    between atoms: _190  and  _192
REMARK   78  A    between atoms: _192  and  _193
REMARK   79  A    between atoms: _192  and  _195
REMARK   80  A    between atoms: _195  and  _196
REMARK   81  A    between atoms: _196  and  _197
REMARK   82  A    between atoms: _197  and  _198
REMARK   83  A    between atoms: _207  and  _209
REMARK   84  A    between atoms: _209  and  _210
REMARK   85  A    between atoms: _212  and  _214
REMARK   86  A    between atoms: _214  and  _215
REMARK   87  A    between atoms: _217  and  _219
REMARK   88  A    between atoms: _219  and  _220
REMARK   89  A    between atoms: _219  and  _222
REMARK   90  A    between atoms: _222  and  _223
REMARK   91  A    between atoms: _223  and  _224
REMARK   92  A    between atoms: _227  and  _229
REMARK   93  A    between atoms: _229  and  _230
REMARK   94  A    between atoms: _229  and  _232
REMARK   95  A    between atoms: _232  and  _233
REMARK   96  A    between atoms: _233  and  _234
REMARK   97  A    between atoms: _234  and  _235
REMARK   98  A    between atoms: _244  and  _246
REMARK   99  A    between atoms: _246  and  _247
REMARK  100  A    between atoms: _246  and  _249
REMARK  101  A    between atoms: _249  and  _250
REMARK  102  A    between atoms: _250  and  _251
REMARK  103  A    between atoms: _254  and  _256
REMARK  104  A    between atoms: _256  and  _257
REMARK  105  A    between atoms: _256  and  _259
REMARK  106  A    between atoms: _259  and  _260
REMARK  107  A    between atoms: _263  and  _265
REMARK  108  A    between atoms: _265  and  _266
REMARK  109  A    between atoms: _265  and  _268
REMARK  110  A    between atoms: _268  and  _269
REMARK  111  A    between atoms: _272  and  _274
REMARK  112  A    between atoms: _274  and  _275
REMARK  113  A    between atoms: _274  and  _277
REMARK  114  A    between atoms: _277  and  _278
REMARK  115  A    between atoms: _281  and  _283
REMARK  116  A    between atoms: _283  and  _284
REMARK  117  A    between atoms: _283  and  _286
REMARK  118  A    between atoms: _286  and  _287
REMARK  119  A    between atoms: _287  and  _288
REMARK  120  A    between atoms: _293  and  _295
REMARK  121  A    between atoms: _295  and  _296
REMARK  122  A    between atoms: _298  and  _300
REMARK  123  A    between atoms: _300  and  _301
REMARK  124  A    between atoms: _300  and  _303
REMARK  125  A    between atoms: _303  and  _304
REMARK  126  A    between atoms: _307  and  _309
REMARK  127  A    between atoms: _309  and  _310
REMARK  128  A    between atoms: _309  and  _312
REMARK  129  A    between atoms: _312  and  _313
REMARK  130  A    between atoms: _318  and  _320
REMARK  131  A    between atoms: _320  and  _321
REMARK  132  A    between atoms: _320  and  _323
REMARK  133  A    between atoms: _323  and  _324
REMARK  134  A    between atoms: _327  and  _329
REMARK  135  A    between atoms: _329  and  _330
REMARK  136  A    between atoms: _329  and  _332
REMARK  137  A    between atoms: _332  and  _333
REMARK  138  A    between atoms: _335  and  _337
REMARK  139  A    between atoms: _337  and  _338
REMARK  140  A    between atoms: _337  and  _340
REMARK  141  A    between atoms: _340  and  _341
REMARK  142  A    between atoms: _341  and  _342
REMARK  143  A    between atoms: _347  and  _349
REMARK  144  A    between atoms: _349  and  _350
REMARK  145  A    between atoms: _349  and  _352
REMARK  146  A    between atoms: _352  and  _353
REMARK  147  A    between atoms: _356  and  _358
REMARK  148  A    between atoms: _358  and  _359
REMARK  149  A    between atoms: _358  and  _361
REMARK  150  A    between atoms: _364  and  _366
REMARK  151  A    between atoms: _366  and  _367
REMARK  152  A    between atoms: _366  and  _369
REMARK  153  A    between atoms: _369  and  _370
REMARK  154  A    between atoms: _370  and  _371
REMARK  155  A    between atoms: _371  and  _372
REMARK  156  A    between atoms: _381  and  _383
REMARK  157  A    between atoms: _383  and  _384
REMARK  158  A    between atoms: _383  and  _386
REMARK  159  A    between atoms: _386  and  _387
REMARK  160  A    between atoms: _390  and  _392
REMARK  161  A    between atoms: _392  and  _393
REMARK  162  A    between atoms: _392  and  _395
REMARK  163  A    between atoms: _395  and  _396
REMARK  164  A    between atoms: _406  and  _408
REMARK  165  A    between atoms: _408  and  _409
REMARK  166  A    between atoms: _408  and  _411
REMARK  167  A    between atoms: _411  and  _412
REMARK  168  A    between atoms: _416  and  _417
REMARK  169  A    between atoms: _422  and  _424
REMARK  170  A    between atoms: _424  and  _425
REMARK  171  A    between atoms: _424  and  _427
REMARK  172  A    between atoms: _427  and  _428
REMARK  173  A    between atoms: _434  and  _435
REMARK  174  A    between atoms: _440  and  _442
REMARK  175  A    between atoms: _442  and  _443
REMARK  176  A    between atoms: _445  and  _447
REMARK  177  A    between atoms: _447  and  _448
REMARK  178  A    between atoms: _447  and  _450
REMARK  179  A    between atoms: _450  and  _451
REMARK  180  A    between atoms: _454  and  _456
REMARK  181  A    between atoms: _456  and  _457
REMARK  182  A    between atoms: _456  and  _459
REMARK  183  A    between atoms: _459  and  _460
REMARK  184  A    between atoms: _460  and  _461
REMARK  185  A    between atoms: _461  and  _462
REMARK  186  A    between atoms: _462  and  _463
REMARK  187  A    between atoms: _467  and  _469
REMARK  188  A    between atoms: _469  and  _470
REMARK  189  A    between atoms: _469  and  _472
REMARK  190  A    between atoms: _475  and  _477
REMARK  191  A    between atoms: _477  and  _478
REMARK  192  A    between atoms: _481  and  _483
REMARK  193  A    between atoms: _483  and  _484
REMARK  194  A    between atoms: _483  and  _486
REMARK  195  A    between atoms: _486  and  _487
REMARK  196  A    between atoms: _490  and  _492
REMARK  197  A    between atoms: _492  and  _493
REMARK  198  A    between atoms: _492  and  _495
REMARK  199  A    between atoms: _495  and  _496
REMARK  200  A    between atoms: _502  and  _503
REMARK  201  A    between atoms: _508  and  _510
REMARK  202  A    between atoms: _510  and  _511
REMARK  203  A    between atoms: _510  and  _513
REMARK  204  A    between atoms: _513  and  _514
REMARK  205  A    between atoms: _520  and  _522
REMARK  206  A    between atoms: _522  and  _523
REMARK  207  A    between atoms: _522  and  _525
REMARK  208  A    between atoms: _525  and  _526
REMARK  209  A    between atoms: _529  and  _531
REMARK  210  A    between atoms: _531  and  _532
REMARK  211  A    between atoms: _534  and  _536
REMARK  212  A    between atoms: _536  and  _537
REMARK  213  A    between atoms: _536  and  _539
REMARK  214  A    between atoms: _539  and  _540
REMARK  215  A    between atoms: _543  and  _545
REMARK  216  A    between atoms: _545  and  _546
REMARK  217  A    between atoms: _545  and  _548
REMARK  218  A    between atoms: _548  and  _549
REMARK  219  A    between atoms: _555  and  _557
REMARK  220  A    between atoms: _557  and  _558
REMARK  221  A    between atoms: _557  and  _560
REMARK  222  A    between atoms: _560  and  _561
REMARK  223  A    between atoms: _561  and  _562
REMARK  224  A    between atoms: _567  and  _569
REMARK  225  A    between atoms: _569  and  _570
REMARK  226  A    between atoms: _569  and  _572
REMARK  227  A    between atoms: _572  and  _573
REMARK  228  A    between atoms: _576  and  _578
REMARK  229  A    between atoms: _578  and  _579
REMARK  230  A    between atoms: _578  and  _581
REMARK  231  A    between atoms: _581  and  _582
REMARK  232  A    between atoms: _584  and  _586
REMARK  233  A    between atoms: _586  and  _587
REMARK  234  A    between atoms: _586  and  _589
REMARK  235  A    between atoms: _589  and  _590
REMARK  236  A    between atoms: _596  and  _598
REMARK  237  A    between atoms: _598  and  _599
REMARK  238  A    between atoms: _598  and  _601
REMARK  239  A    between atoms: _601  and  _602
REMARK  240  A    between atoms: _607  and  _608
REMARK  241  A    between atoms: _610  and  _612
REMARK  242  A    between atoms: _612  and  _613
REMARK  243  A    between atoms: _612  and  _615
REMARK  244  A    between atoms: _615  and  _616
REMARK                            x       y       z     vdW  Elec       q    Type
REMARK                         _______ _______ _______ _____ _____    ______ ____
ROOT
ATOM      1  O   HOH     1     -15.842   4.448  46.965  0.00  0.00    +0.000 OA
ENDROOT
TORSDOF 0
REMARK  Name = ../refined-set-2016/4ido/4ido_pocket.pdb
REMARK  244 active torsions:
REMARK  status: ('A' for Active; 'I' for Inactive)
REMARK    1  A    between atoms: _1  and  _3
REMARK    2  A    between atoms: _3  and  _4
REMARK    3  A    between atoms: _3  and  _6
REMARK    4  A    between atoms: _9  and  _11
REMARK    5  A    between atoms: _11  and  _12
REMARK    6  A    between atoms: _15  and  _17
REMARK    7  A    between atoms: _17  and  _18
REMARK    8  A    between atoms: _20  and  _22
REMARK    9  A    between atoms: _22  and  _23
REMARK   10  A    between atoms: _26  and  _28
REMARK   11  A    between atoms: _28  and  _29
REMARK   12  A    between atoms: _28  and  _31
REMARK   13  A    between atoms: _31  and  _32
REMARK   14  A    between atoms: _38  and  _40
REMARK   15  A    between atoms: _40  and  _41
REMARK   16  A    between atoms: _40  and  _43
REMARK   17  A    between atoms: _43  and  _44
REMARK   18  A    between atoms: _44  and  _45
REMARK   19  A    between atoms: _45  and  _46
REMARK   20  A    between atoms: _55  and  _57
REMARK   21  A    between atoms: _57  and  _58
REMARK   22  A    between atoms: _57  and  _60
REMARK   23  A    between atoms: _60  and  _61
REMARK   24  A    between atoms: _61  and  _62
REMARK   25  A    between atoms: _62  and  _63
REMARK   26  A    between atoms: _63  and  _64
REMARK   27  A    between atoms: _68  and  _70
REMARK   28  A    between atoms: _70  and  _71
REMARK   29  A    between atoms: _73  and  _75
REMARK   30  A    between atoms: _75  and  _76
REMARK   31  A    between atoms: _75  and  _78
REMARK   32  A    between atoms: _78  and  _79
REMARK   33  A    between atoms: _79  and  _80
REMARK   34  A    between atoms: _80  and  _81
REMARK   35  A    between atoms: _81  and  _82
REMARK   36  A    between atoms: _86  and  _88
REMARK   37  A    between atoms: _88  and  _89
REMARK   38  A    between atoms: _88  and  _91
REMARK   39  A    between atoms: _91  and  _92
REMARK   40  A    between atoms: _94  and  _96
REMARK   41  A    between atoms: _96  and  _97
REMARK   42  A    between atoms: _96  and  _99
REMARK   43  A    between atoms: _99  and  _100
REMARK   44  A    between atoms: _106  and  _108
REMARK   45  A    between atoms: _108  and  _109
REMARK   46  A    between atoms: _108  and  _111
REMARK   47  A    between atoms: _111  and  _112
REMARK   48  A    between atoms: _115  and  _117
REMARK   49  A    between atoms: _117  and  _118
REMARK   50  A    between atoms: _117  and  _120
REMARK   51  A    between atoms: _120  and  _121
REMARK   52  A    between atoms: _121  and  _122
REMARK   53  A    between atoms: _124  and  _126
REMARK   54  A    between atoms: _126  and  _127
REMARK   55  A    between atoms: _126  and  _129
REMARK   56  A    between atoms: _129  and  _130
REMARK   57  A    between atoms: _133  and  _135
REMARK   58  A    between atoms: _135  and  _136
REMARK   59  A    between atoms: _135  and  _138
REMARK   60  A    between atoms: _138  and  _139
REMARK   61  A    between atoms: _145  and  _147
REMARK   62  A    between atoms: _147  and  _148
REMARK   63  A    between atoms: _147  and  _150
REMARK   64  A    between atoms: _150  and  _151
REMARK   65  A    between atoms: _154  and  _156
REMARK   66  A    between atoms: _156  and  _157
REMARK   67  A    between atoms: _156  and  _159
REMARK   68  A    between atoms: _159  and  _160
REMARK   69  A    between atoms: _166  and  _168
REMARK   70  A    between atoms: _168  and  _169
REMARK   71  A    between atoms: _168  and  _171
REMARK   72  A    between atoms: _171  and  _172
REMARK   73  A    between atoms: _174  and  _176
REMARK   74  A    between atoms: _176  and  _177
REMARK   75  A    between atoms: _176  and  _179
REMARK   76  A    between atoms: _179  and  _180
REMARK   77  A    between atoms: _190  and  _192
REMARK   78  A    between atoms: _192  and  _193
REMARK   79  A    between atoms: _192  and  _195
REMARK   80  A    between atoms: _195  and  _196
REMARK   81  A    between atoms: _196  and  _197
REMARK   82  A    between atoms: _197  and  _198
REMARK   83  A    between atoms: _207  and  _209
REMARK   84  A    between atoms: _209  and  _210
REMARK   85  A    between atoms: _212  and  _214
REMARK   86  A    between atoms: _214  and  _215
REMARK   87  A    between atoms: _217  and  _219
REMARK   88  A    between atoms: _219  and  _220
REMARK   89  A    between atoms: _219  and  _222
REMARK   90  A    between atoms: _222  and  _223
REMARK   91  A    between atoms: _223  and  _224
REMARK   92  A    between atoms: _227  and  _229
REMARK   93  A    between atoms: _229  and  _230
REMARK   94  A    between atoms: _229  and  _232
REMARK   95  A    between atoms: _232  and  _233
REMARK   96  A    between atoms: _233  and  _234
REMARK   97  A    between atoms: _234  and  _235
REMARK   98  A    between atoms: _244  and  _246
REMARK   99  A    between atoms: _246  and  _247
REMARK  100  A    between atoms: _246  and  _249
REMARK  101  A    between atoms: _249  and  _250
REMARK  102  A    between atoms: _250  and  _251
REMARK  103  A    between atoms: _254  and  _256
REMARK  104  A    between atoms: _256  and  _257
REMARK  105  A    between atoms: _256  and  _259
REMARK  106  A    between atoms: _259  and  _260
REMARK  107  A    between atoms: _263  and  _265
REMARK  108  A    between atoms: _265  and  _266
REMARK  109  A    between atoms: _265  and  _268
REMARK  110  A    between atoms: _268  and  _269
REMARK  111  A    between atoms: _272  and  _274
REMARK  112  A    between atoms: _274  and  _275
REMARK  113  A    between atoms: _274  and  _277
REMARK  114  A    between atoms: _277  and  _278
REMARK  115  A    between atoms: _281  and  _283
REMARK  116  A    between atoms: _283  and  _284
REMARK  117  A    between atoms: _283  and  _286
REMARK  118  A    between atoms: _286  and  _287
REMARK  119  A    between atoms: _287  and  _288
REMARK  120  A    between atoms: _293  and  _295
REMARK  121  A    between atoms: _295  and  _296
REMARK  122  A    between atoms: _298  and  _300
REMARK  123  A    between atoms: _300  and  _301
REMARK  124  A    between atoms: _300  and  _303
REMARK  125  A    between atoms: _303  and  _304
REMARK  126  A    between atoms: _307  and  _309
REMARK  127  A    between atoms: _309  and  _310
REMARK  128  A    between atoms: _309  and  _312
REMARK  129  A    between atoms: _312  and  _313
REMARK  130  A    between atoms: _318  and  _320
REMARK  131  A    between atoms: _320  and  _321
REMARK  132  A    between atoms: _320  and  _323
REMARK  133  A    between atoms: _323  and  _324
REMARK  134  A    between atoms: _327  and  _329
REMARK  135  A    between atoms: _329  and  _330
REMARK  136  A    between atoms: _329  and  _332
REMARK  137  A    between atoms: _332  and  _333
REMARK  138  A    between atoms: _335  and  _337
REMARK  139  A    between atoms: _337  and  _338
REMARK  140  A    between atoms: _337  and  _340
REMARK  141  A    between atoms: _340  and  _341
REMARK  142  A    between atoms: _341  and  _342
REMARK  143  A    between atoms: _347  and  _349
REMARK  144  A    between atoms: _349  and  _350
REMARK  145  A    between atoms: _349  and  _352
REMARK  146  A    between atoms: _352  and  _353
REMARK  147  A    between atoms: _356  and  _358
REMARK  148  A    between atoms: _358  and  _359
REMARK  149  A    between atoms: _358  and  _361
REMARK  150  A    between atoms: _364  and  _366
REMARK  151  A    between atoms: _366  and  _367
REMARK  152  A    between atoms: _366  and  _369
REMARK  153  A    between atoms: _369  and  _370
REMARK  154  A    between atoms: _370  and  _371
REMARK  155  A    between atoms: _371  and  _372
REMARK  156  A    between atoms: _381  and  _383
REMARK  157  A    between atoms: _383  and  _384
REMARK  158  A    between atoms: _383  and  _386
REMARK  159  A    between atoms: _386  and  _387
REMARK  160  A    between atoms: _390  and  _392
REMARK  161  A    between atoms: _392  and  _393
REMARK  162  A    between atoms: _392  and  _395
REMARK  163  A    between atoms: _395  and  _396
REMARK  164  A    between atoms: _406  and  _408
REMARK  165  A    between atoms: _408  and  _409
REMARK  166  A    between atoms: _408  and  _411
REMARK  167  A    between atoms: _411  and  _412
REMARK  168  A    between atoms: _416  and  _417
REMARK  169  A    between atoms: _422  and  _424
REMARK  170  A    between atoms: _424  and  _425
REMARK  171  A    between atoms: _424  and  _427
REMARK  172  A    between atoms: _427  and  _428
REMARK  173  A    between atoms: _434  and  _435
REMARK  174  A    between atoms: _440  and  _442
REMARK  175  A    between atoms: _442  and  _443
REMARK  176  A    between atoms: _445  and  _447
REMARK  177  A    between atoms: _447  and  _448
REMARK  178  A    between atoms: _447  and  _450
REMARK  179  A    between atoms: _450  and  _451
REMARK  180  A    between atoms: _454  and  _456
REMARK  181  A    between atoms: _456  and  _457
REMARK  182  A    between atoms: _456  and  _459
REMARK  183  A    between atoms: _459  and  _460
REMARK  184  A    between atoms: _460  and  _461
REMARK  185  A    between atoms: _461  and  _462
REMARK  186  A    between atoms: _462  and  _463
REMARK  187  A    between atoms: _467  and  _469
REMARK  188  A    between atoms: _469  and  _470
REMARK  189  A    between atoms: _469  and  _472
REMARK  190  A    between atoms: _475  and  _477
REMARK  191  A    between atoms: _477  and  _478
REMARK  192  A    between atoms: _481  and  _483
REMARK  193  A    between atoms: _483  and  _484
REMARK  194  A    between atoms: _483  and  _486
REMARK  195  A    between atoms: _486  and  _487
REMARK  196  A    between atoms: _490  and  _492
REMARK  197  A    between atoms: _492  and  _493
REMARK  198  A    between atoms: _492  and  _495
REMARK  199  A    between atoms: _495  and  _496
REMARK  200  A    between atoms: _502  and  _503
REMARK  201  A    between atoms: _508  and  _510
REMARK  202  A    between atoms: _510  and  _511
REMARK  203  A    between atoms: _510  and  _513
REMARK  204  A    between atoms: _513  and  _514
REMARK  205  A    between atoms: _520  and  _522
REMARK  206  A    between atoms: _522  and  _523
REMARK  207  A    between atoms: _522  and  _525
REMARK  208  A    between atoms: _525  and  _526
REMARK  209  A    between atoms: _529  and  _531
REMARK  210  A    between atoms: _531  and  _532
REMARK  211  A    between atoms: _534  and  _536
REMARK  212  A    between atoms: _536  and  _537
REMARK  213  A    between atoms: _536  and  _539
REMARK  214  A    between atoms: _539  and  _540
REMARK  215  A    between atoms: _543  and  _545
REMARK  216  A    between atoms: _545  and  _546
REMARK  217  A    between atoms: _545  and  _548
REMARK  218  A    between atoms: _548  and  _549
REMARK  219  A    between atoms: _555  and  _557
REMARK  220  A    between atoms: _557  and  _558
REMARK  221  A    between atoms: _557  and  _560
REMARK  222  A    between atoms: _560  and  _561
REMARK  223  A    between atoms: _561  and  _562
REMARK  224  A    between atoms: _567  and  _569
REMARK  225  A    between atoms: _569  and  _570
REMARK  226  A    between atoms: _569  and  _572
REMARK  227  A    between atoms: _572  and  _573
REMARK  228  A    between atoms: _576  and  _578
REMARK  229  A    between atoms: _578  and  _579
REMARK  230  A    between atoms: _578  and  _581
REMARK  231  A    between atoms: _581  and  _582
REMARK  232  A    between atoms: _584  and  _586
REMARK  233  A    between atoms: _586  and  _587
REMARK  234  A    between atoms: _586  and  _589
REMARK  235  A    between atoms: _589  and  _590
REMARK  236  A    between atoms: _596  and  _598
REMARK  237  A    between atoms: _598  and  _599
REMARK  238  A    between atoms: _598  and  _601
REMARK  239  A    between atoms: _601  and  _602
REMARK  240  A    between atoms: _607  and  _608
REMARK  241  A    between atoms: _610  and  _612
REMARK  242  A    between atoms: _612  and  _613
REMARK  243  A    between atoms: _612  and  _615
REMARK  244  A    between atoms: _615  and  _616
REMARK                            x       y       z     vdW  Elec       q    Type
REMARK                         _______ _______ _______ _____ _____    ______ ____
ROOT
ATOM      1  O   HOH     1     -21.756   4.048  42.930  0.00  0.00    +0.000 OA
ENDROOT
TORSDOF 0
REMARK  Name = ../refined-set-2016/4ido/4ido_pocket.pdb
REMARK  244 active torsions:
REMARK  status: ('A' for Active; 'I' for Inactive)
REMARK    1  A    between atoms: _1  and  _3
REMARK    2  A    between atoms: _3  and  _4
REMARK    3  A    between atoms: _3  and  _6
REMARK    4  A    between atoms: _9  and  _11
REMARK    5  A    between atoms: _11  and  _12
REMARK    6  A    between atoms: _15  and  _17
REMARK    7  A    between atoms: _17  and  _18
REMARK    8  A    between atoms: _20  and  _22
REMARK    9  A    between atoms: _22  and  _23
REMARK   10  A    between atoms: _26  and  _28
REMARK   11  A    between atoms: _28  and  _29
REMARK   12  A    between atoms: _28  and  _31
REMARK   13  A    between atoms: _31  and  _32
REMARK   14  A    between atoms: _38  and  _40
REMARK   15  A    between atoms: _40  and  _41
REMARK   16  A    between atoms: _40  and  _43
REMARK   17  A    between atoms: _43  and  _44
REMARK   18  A    between atoms: _44  and  _45
REMARK   19  A    between atoms: _45  and  _46
REMARK   20  A    between atoms: _55  and  _57
REMARK   21  A    between atoms: _57  and  _58
REMARK   22  A    between atoms: _57  and  _60
REMARK   23  A    between atoms: _60  and  _61
REMARK   24  A    between atoms: _61  and  _62
REMARK   25  A    between atoms: _62  and  _63
REMARK   26  A    between atoms: _63  and  _64
REMARK   27  A    between atoms: _68  and  _70
REMARK   28  A    between atoms: _70  and  _71
REMARK   29  A    between atoms: _73  and  _75
REMARK   30  A    between atoms: _75  and  _76
REMARK   31  A    between atoms: _75  and  _78
REMARK   32  A    between atoms: _78  and  _79
REMARK   33  A    between atoms: _79  and  _80
REMARK   34  A    between atoms: _80  and  _81
REMARK   35  A    between atoms: _81  and  _82
REMARK   36  A    between atoms: _86  and  _88
REMARK   37  A    between atoms: _88  and  _89
REMARK   38  A    between atoms: _88  and  _91
REMARK   39  A    between atoms: _91  and  _92
REMARK   40  A    between atoms: _94  and  _96
REMARK   41  A    between atoms: _96  and  _97
REMARK   42  A    between atoms: _96  and  _99
REMARK   43  A    between atoms: _99  and  _100
REMARK   44  A    between atoms: _106  and  _108
REMARK   45  A    between atoms: _108  and  _109
REMARK   46  A    between atoms: _108  and  _111
REMARK   47  A    between atoms: _111  and  _112
REMARK   48  A    between atoms: _115  and  _117
REMARK   49  A    between atoms: _117  and  _118
REMARK   50  A    between atoms: _117  and  _120
REMARK   51  A    between atoms: _120  and  _121
REMARK   52  A    between atoms: _121  and  _122
REMARK   53  A    between atoms: _124  and  _126
REMARK   54  A    between atoms: _126  and  _127
REMARK   55  A    between atoms: _126  and  _129
REMARK   56  A    between atoms: _129  and  _130
REMARK   57  A    between atoms: _133  and  _135
REMARK   58  A    between atoms: _135  and  _136
REMARK   59  A    between atoms: _135  and  _138
REMARK   60  A    between atoms: _138  and  _139
REMARK   61  A    between atoms: _145  and  _147
REMARK   62  A    between atoms: _147  and  _148
REMARK   63  A    between atoms: _147  and  _150
REMARK   64  A    between atoms: _150  and  _151
REMARK   65  A    between atoms: _154  and  _156
REMARK   66  A    between atoms: _156  and  _157
REMARK   67  A    between atoms: _156  and  _159
REMARK   68  A    between atoms: _159  and  _160
REMARK   69  A    between atoms: _166  and  _168
REMARK   70  A    between atoms: _168  and  _169
REMARK   71  A    between atoms: _168  and  _171
REMARK   72  A    between atoms: _171  and  _172
REMARK   73  A    between atoms: _174  and  _176
REMARK   74  A    between atoms: _176  and  _177
REMARK   75  A    between atoms: _176  and  _179
REMARK   76  A    between atoms: _179  and  _180
REMARK   77  A    between atoms: _190  and  _192
REMARK   78  A    between atoms: _192  and  _193
REMARK   79  A    between atoms: _192  and  _195
REMARK   80  A    between atoms: _195  and  _196
REMARK   81  A    between atoms: _196  and  _197
REMARK   82  A    between atoms: _197  and  _198
REMARK   83  A    between atoms: _207  and  _209
REMARK   84  A    between atoms: _209  and  _210
REMARK   85  A    between atoms: _212  and  _214
REMARK   86  A    between atoms: _214  and  _215
REMARK   87  A    between atoms: _217  and  _219
REMARK   88  A    between atoms: _219  and  _220
REMARK   89  A    between atoms: _219  and  _222
REMARK   90  A    between atoms: _222  and  _223
REMARK   91  A    between atoms: _223  and  _224
REMARK   92  A    between atoms: _227  and  _229
REMARK   93  A    between atoms: _229  and  _230
REMARK   94  A    between atoms: _229  and  _232
REMARK   95  A    between atoms: _232  and  _233
REMARK   96  A    between atoms: _233  and  _234
REMARK   97  A    between atoms: _234  and  _235
REMARK   98  A    between atoms: _244  and  _246
REMARK   99  A    between atoms: _246  and  _247
REMARK  100  A    between atoms: _246  and  _249
REMARK  101  A    between atoms: _249  and  _250
REMARK  102  A    between atoms: _250  and  _251
REMARK  103  A    between atoms: _254  and  _256
REMARK  104  A    between atoms: _256  and  _257
REMARK  105  A    between atoms: _256  and  _259
REMARK  106  A    between atoms: _259  and  _260
REMARK  107  A    between atoms: _263  and  _265
REMARK  108  A    between atoms: _265  and  _266
REMARK  109  A    between atoms: _265  and  _268
REMARK  110  A    between atoms: _268  and  _269
REMARK  111  A    between atoms: _272  and  _274
REMARK  112  A    between atoms: _274  and  _275
REMARK  113  A    between atoms: _274  and  _277
REMARK  114  A    between atoms: _277  and  _278
REMARK  115  A    between atoms: _281  and  _283
REMARK  116  A    between atoms: _283  and  _284
REMARK  117  A    between atoms: _283  and  _286
REMARK  118  A    between atoms: _286  and  _287
REMARK  119  A    between atoms: _287  and  _288
REMARK  120  A    between atoms: _293  and  _295
REMARK  121  A    between atoms: _295  and  _296
REMARK  122  A    between atoms: _298  and  _300
REMARK  123  A    between atoms: _300  and  _301
REMARK  124  A    between atoms: _300  and  _303
REMARK  125  A    between atoms: _303  and  _304
REMARK  126  A    between atoms: _307  and  _309
REMARK  127  A    between atoms: _309  and  _310
REMARK  128  A    between atoms: _309  and  _312
REMARK  129  A    between atoms: _312  and  _313
REMARK  130  A    between atoms: _318  and  _320
REMARK  131  A    between atoms: _320  and  _321
REMARK  132  A    between atoms: _320  and  _323
REMARK  133  A    between atoms: _323  and  _324
REMARK  134  A    between atoms: _327  and  _329
REMARK  135  A    between atoms: _329  and  _330
REMARK  136  A    between atoms: _329  and  _332
REMARK  137  A    between atoms: _332  and  _333
REMARK  138  A    between atoms: _335  and  _337
REMARK  139  A    between atoms: _337  and  _338
REMARK  140  A    between atoms: _337  and  _340
REMARK  141  A    between atoms: _340  and  _341
REMARK  142  A    between atoms: _341  and  _342
REMARK  143  A    between atoms: _347  and  _349
REMARK  144  A    between atoms: _349  and  _350
REMARK  145  A    between atoms: _349  and  _352
REMARK  146  A    between atoms: _352  and  _353
REMARK  147  A    between atoms: _356  and  _358
REMARK  148  A    between atoms: _358  and  _359
REMARK  149  A    between atoms: _358  and  _361
REMARK  150  A    between atoms: _364  and  _366
REMARK  151  A    between atoms: _366  and  _367
REMARK  152  A    between atoms: _366  and  _369
REMARK  153  A    between atoms: _369  and  _370
REMARK  154  A    between atoms: _370  and  _371
REMARK  155  A    between atoms: _371  and  _372
REMARK  156  A    between atoms: _381  and  _383
REMARK  157  A    between atoms: _383  and  _384
REMARK  158  A    between atoms: _383  and  _386
REMARK  159  A    between atoms: _386  and  _387
REMARK  160  A    between atoms: _390  and  _392
REMARK  161  A    between atoms: _392  and  _393
REMARK  162  A    between atoms: _392  and  _395
REMARK  163  A    between atoms: _395  and  _396
REMARK  164  A    between atoms: _406  and  _408
REMARK  165  A    between atoms: _408  and  _409
REMARK  166  A    between atoms: _408  and  _411
REMARK  167  A    between atoms: _411  and  _412
REMARK  168  A    between atoms: _416  and  _417
REMARK  169  A    between atoms: _422  and  _424
REMARK  170  A    between atoms: _424  and  _425
REMARK  171  A    between atoms: _424  and  _427
REMARK  172  A    between atoms: _427  and  _428
REMARK  173  A    between atoms: _434  and  _435
REMARK  174  A    between atoms: _440  and  _442
REMARK  175  A    between atoms: _442  and  _443
REMARK  176  A    between atoms: _445  and  _447
REMARK  177  A    between atoms: _447  and  _448
REMARK  178  A    between atoms: _447  and  _450
REMARK  179  A    between atoms: _450  and  _451
REMARK  180  A    between atoms: _454  and  _456
REMARK  181  A    between atoms: _456  and  _457
REMARK  182  A    between atoms: _456  and  _459
REMARK  183  A    between atoms: _459  and  _460
REMARK  184  A    between atoms: _460  and  _461
REMARK  185  A    between atoms: _461  and  _462
REMARK  186  A    between atoms: _462  and  _463
REMARK  187  A    between atoms: _467  and  _469
REMARK  188  A    between atoms: _469  and  _470
REMARK  189  A    between atoms: _469  and  _472
REMARK  190  A    between atoms: _475  and  _477
REMARK  191  A    between atoms: _477  and  _478
REMARK  192  A    between atoms: _481  and  _483
REMARK  193  A    between atoms: _483  and  _484
REMARK  194  A    between atoms: _483  and  _486
REMARK  195  A    between atoms: _486  and  _487
REMARK  196  A    between atoms: _490  and  _492
REMARK  197  A    between atoms: _492  and  _493
REMARK  198  A    between atoms: _492  and  _495
REMARK  199  A    between atoms: _495  and  _496
REMARK  200  A    between atoms: _502  and  _503
REMARK  201  A    between atoms: _508  and  _510
REMARK  202  A    between atoms: _510  and  _511
REMARK  203  A    between atoms: _510  and  _513
REMARK  204  A    between atoms: _513  and  _514
REMARK  205  A    between atoms: _520  and  _522
REMARK  206  A    between atoms: _522  and  _523
REMARK  207  A    between atoms: _522  and  _525
REMARK  208  A    between atoms: _525  and  _526
REMARK  209  A    between atoms: _529  and  _531
REMARK  210  A    between atoms: _531  and  _532
REMARK  211  A    between atoms: _534  and  _536
REMARK  212  A    between atoms: _536  and  _537
REMARK  213  A    between atoms: _536  and  _539
REMARK  214  A    between atoms: _539  and  _540
REMARK  215  A    between atoms: _543  and  _545
REMARK  216  A    between atoms: _545  and  _546
REMARK  217  A    between atoms: _545  and  _548
REMARK  218  A    between atoms: _548  and  _549
REMARK  219  A    between atoms: _555  and  _557
REMARK  220  A    between atoms: _557  and  _558
REMARK  221  A    between atoms: _557  and  _560
REMARK  222  A    between atoms: _560  and  _561
REMARK  223  A    between atoms: _561  and  _562
REMARK  224  A    between atoms: _567  and  _569
REMARK  225  A    between atoms: _569  and  _570
REMARK  226  A    between atoms: _569  and  _572
REMARK  227  A    between atoms: _572  and  _573
REMARK  228  A    between atoms: _576  and  _578
REMARK  229  A    between atoms: _578  and  _579
REMARK  230  A    between atoms: _578  and  _581
REMARK  231  A    between atoms: _581  and  _582
REMARK  232  A    between atoms: _584  and  _586
REMARK  233  A    between atoms: _586  and  _587
REMARK  234  A    between atoms: _586  and  _589
REMARK  235  A    between atoms: _589  and  _590
REMARK  236  A    between atoms: _596  and  _598
REMARK  237  A    between atoms: _598  and  _599
REMARK  238  A    between atoms: _598  and  _601
REMARK  239  A    between atoms: _601  and  _602
REMARK  240  A    between atoms: _607  and  _608
REMARK  241  A    between atoms: _610  and  _612
REMARK  242  A    between atoms: _612  and  _613
REMARK  243  A    between atoms: _612  and  _615
REMARK  244  A    between atoms: _615  and  _616
REMARK                            x       y       z     vdW  Elec       q    Type
REMARK                         _______ _______ _______ _____ _____    ______ ____
ROOT
ATOM      1  O   HOH     1     -14.309   1.543  48.664  0.00  0.00    +0.000 OA
ENDROOT
TORSDOF 0
REMARK  Name = ../refined-set-2016/4ido/4ido_pocket.pdb
REMARK  244 active torsions:
REMARK  status: ('A' for Active; 'I' for Inactive)
REMARK    1  A    between atoms: _1  and  _3
REMARK    2  A    between atoms: _3  and  _4
REMARK    3  A    between atoms: _3  and  _6
REMARK    4  A    between atoms: _9  and  _11
REMARK    5  A    between atoms: _11  and  _12
REMARK    6  A    between atoms: _15  and  _17
REMARK    7  A    between atoms: _17  and  _18
REMARK    8  A    between atoms: _20  and  _22
REMARK    9  A    between atoms: _22  and  _23
REMARK   10  A    between atoms: _26  and  _28
REMARK   11  A    between atoms: _28  and  _29
REMARK   12  A    between atoms: _28  and  _31
REMARK   13  A    between atoms: _31  and  _32
REMARK   14  A    between atoms: _38  and  _40
REMARK   15  A    between atoms: _40  and  _41
REMARK   16  A    between atoms: _40  and  _43
REMARK   17  A    between atoms: _43  and  _44
REMARK   18  A    between atoms: _44  and  _45
REMARK   19  A    between atoms: _45  and  _46
REMARK   20  A    between atoms: _55  and  _57
REMARK   21  A    between atoms: _57  and  _58
REMARK   22  A    between atoms: _57  and  _60
REMARK   23  A    between atoms: _60  and  _61
REMARK   24  A    between atoms: _61  and  _62
REMARK   25  A    between atoms: _62  and  _63
REMARK   26  A    between atoms: _63  and  _64
REMARK   27  A    between atoms: _68  and  _70
REMARK   28  A    between atoms: _70  and  _71
REMARK   29  A    between atoms: _73  and  _75
REMARK   30  A    between atoms: _75  and  _76
REMARK   31  A    between atoms: _75  and  _78
REMARK   32  A    between atoms: _78  and  _79
REMARK   33  A    between atoms: _79  and  _80
REMARK   34  A    between atoms: _80  and  _81
REMARK   35  A    between atoms: _81  and  _82
REMARK   36  A    between atoms: _86  and  _88
REMARK   37  A    between atoms: _88  and  _89
REMARK   38  A    between atoms: _88  and  _91
REMARK   39  A    between atoms: _91  and  _92
REMARK   40  A    between atoms: _94  and  _96
REMARK   41  A    between atoms: _96  and  _97
REMARK   42  A    between atoms: _96  and  _99
REMARK   43  A    between atoms: _99  and  _100
REMARK   44  A    between atoms: _106  and  _108
REMARK   45  A    between atoms: _108  and  _109
REMARK   46  A    between atoms: _108  and  _111
REMARK   47  A    between atoms: _111  and  _112
REMARK   48  A    between atoms: _115  and  _117
REMARK   49  A    between atoms: _117  and  _118
REMARK   50  A    between atoms: _117  and  _120
REMARK   51  A    between atoms: _120  and  _121
REMARK   52  A    between atoms: _121  and  _122
REMARK   53  A    between atoms: _124  and  _126
REMARK   54  A    between atoms: _126  and  _127
REMARK   55  A    between atoms: _126  and  _129
REMARK   56  A    between atoms: _129  and  _130
REMARK   57  A    between atoms: _133  and  _135
REMARK   58  A    between atoms: _135  and  _136
REMARK   59  A    between atoms: _135  and  _138
REMARK   60  A    between atoms: _138  and  _139
REMARK   61  A    between atoms: _145  and  _147
REMARK   62  A    between atoms: _147  and  _148
REMARK   63  A    between atoms: _147  and  _150
REMARK   64  A    between atoms: _150  and  _151
REMARK   65  A    between atoms: _154  and  _156
REMARK   66  A    between atoms: _156  and  _157
REMARK   67  A    between atoms: _156  and  _159
REMARK   68  A    between atoms: _159  and  _160
REMARK   69  A    between atoms: _166  and  _168
REMARK   70  A    between atoms: _168  and  _169
REMARK   71  A    between atoms: _168  and  _171
REMARK   72  A    between atoms: _171  and  _172
REMARK   73  A    between atoms: _174  and  _176
REMARK   74  A    between atoms: _176  and  _177
REMARK   75  A    between atoms: _176  and  _179
REMARK   76  A    between atoms: _179  and  _180
REMARK   77  A    between atoms: _190  and  _192
REMARK   78  A    between atoms: _192  and  _193
REMARK   79  A    between atoms: _192  and  _195
REMARK   80  A    between atoms: _195  and  _196
REMARK   81  A    between atoms: _196  and  _197
REMARK   82  A    between atoms: _197  and  _198
REMARK   83  A    between atoms: _207  and  _209
REMARK   84  A    between atoms: _209  and  _210
REMARK   85  A    between atoms: _212  and  _214
REMARK   86  A    between atoms: _214  and  _215
REMARK   87  A    between atoms: _217  and  _219
REMARK   88  A    between atoms: _219  and  _220
REMARK   89  A    between atoms: _219  and  _222
REMARK   90  A    between atoms: _222  and  _223
REMARK   91  A    between atoms: _223  and  _224
REMARK   92  A    between atoms: _227  and  _229
REMARK   93  A    between atoms: _229  and  _230
REMARK   94  A    between atoms: _229  and  _232
REMARK   95  A    between atoms: _232  and  _233
REMARK   96  A    between atoms: _233  and  _234
REMARK   97  A    between atoms: _234  and  _235
REMARK   98  A    between atoms: _244  and  _246
REMARK   99  A    between atoms: _246  and  _247
REMARK  100  A    between atoms: _246  and  _249
REMARK  101  A    between atoms: _249  and  _250
REMARK  102  A    between atoms: _250  and  _251
REMARK  103  A    between atoms: _254  and  _256
REMARK  104  A    between atoms: _256  and  _257
REMARK  105  A    between atoms: _256  and  _259
REMARK  106  A    between atoms: _259  and  _260
REMARK  107  A    between atoms: _263  and  _265
REMARK  108  A    between atoms: _265  and  _266
REMARK  109  A    between atoms: _265  and  _268
REMARK  110  A    between atoms: _268  and  _269
REMARK  111  A    between atoms: _272  and  _274
REMARK  112  A    between atoms: _274  and  _275
REMARK  113  A    between atoms: _274  and  _277
REMARK  114  A    between atoms: _277  and  _278
REMARK  115  A    between atoms: _281  and  _283
REMARK  116  A    between atoms: _283  and  _284
REMARK  117  A    between atoms: _283  and  _286
REMARK  118  A    between atoms: _286  and  _287
REMARK  119  A    between atoms: _287  and  _288
REMARK  120  A    between atoms: _293  and  _295
REMARK  121  A    between atoms: _295  and  _296
REMARK  122  A    between atoms: _298  and  _300
REMARK  123  A    between atoms: _300  and  _301
REMARK  124  A    between atoms: _300  and  _303
REMARK  125  A    between atoms: _303  and  _304
REMARK  126  A    between atoms: _307  and  _309
REMARK  127  A    between atoms: _309  and  _310
REMARK  128  A    between atoms: _309  and  _312
REMARK  129  A    between atoms: _312  and  _313
REMARK  130  A    between atoms: _318  and  _320
REMARK  131  A    between atoms: _320  and  _321
REMARK  132  A    between atoms: _320  and  _323
REMARK  133  A    between atoms: _323  and  _324
REMARK  134  A    between atoms: _327  and  _329
REMARK  135  A    between atoms: _329  and  _330
REMARK  136  A    between atoms: _329  and  _332
REMARK  137  A    between atoms: _332  and  _333
REMARK  138  A    between atoms: _335  and  _337
REMARK  139  A    between atoms: _337  and  _338
REMARK  140  A    between atoms: _337  and  _340
REMARK  141  A    between atoms: _340  and  _341
REMARK  142  A    between atoms: _341  and  _342
REMARK  143  A    between atoms: _347  and  _349
REMARK  144  A    between atoms: _349  and  _350
REMARK  145  A    between atoms: _349  and  _352
REMARK  146  A    between atoms: _352  and  _353
REMARK  147  A    between atoms: _356  and  _358
REMARK  148  A    between atoms: _358  and  _359
REMARK  149  A    between atoms: _358  and  _361
REMARK  150  A    between atoms: _364  and  _366
REMARK  151  A    between atoms: _366  and  _367
REMARK  152  A    between atoms: _366  and  _369
REMARK  153  A    between atoms: _369  and  _370
REMARK  154  A    between atoms: _370  and  _371
REMARK  155  A    between atoms: _371  and  _372
REMARK  156  A    between atoms: _381  and  _383
REMARK  157  A    between atoms: _383  and  _384
REMARK  158  A    between atoms: _383  and  _386
REMARK  159  A    between atoms: _386  and  _387
REMARK  160  A    between atoms: _390  and  _392
REMARK  161  A    between atoms: _392  and  _393
REMARK  162  A    between atoms: _392  and  _395
REMARK  163  A    between atoms: _395  and  _396
REMARK  164  A    between atoms: _406  and  _408
REMARK  165  A    between atoms: _408  and  _409
REMARK  166  A    between atoms: _408  and  _411
REMARK  167  A    between atoms: _411  and  _412
REMARK  168  A    between atoms: _416  and  _417
REMARK  169  A    between atoms: _422  and  _424
REMARK  170  A    between atoms: _424  and  _425
REMARK  171  A    between atoms: _424  and  _427
REMARK  172  A    between atoms: _427  and  _428
REMARK  173  A    between atoms: _434  and  _435
REMARK  174  A    between atoms: _440  and  _442
REMARK  175  A    between atoms: _442  and  _443
REMARK  176  A    between atoms: _445  and  _447
REMARK  177  A    between atoms: _447  and  _448
REMARK  178  A    between atoms: _447  and  _450
REMARK  179  A    between atoms: _450  and  _451
REMARK  180  A    between atoms: _454  and  _456
REMARK  181  A    between atoms: _456  and  _457
REMARK  182  A    between atoms: _456  and  _459
REMARK  183  A    between atoms: _459  and  _460
REMARK  184  A    between atoms: _460  and  _461
REMARK  185  A    between atoms: _461  and  _462
REMARK  186  A    between atoms: _462  and  _463
REMARK  187  A    between atoms: _467  and  _469
REMARK  188  A    between atoms: _469  and  _470
REMARK  189  A    between atoms: _469  and  _472
REMARK  190  A    between atoms: _475  and  _477
REMARK  191  A    between atoms: _477  and  _478
REMARK  192  A    between atoms: _481  and  _483
REMARK  193  A    between atoms: _483  and  _484
REMARK  194  A    between atoms: _483  and  _486
REMARK  195  A    between atoms: _486  and  _487
REMARK  196  A    between atoms: _490  and  _492
REMARK  197  A    between atoms: _492  and  _493
REMARK  198  A    between atoms: _492  and  _495
REMARK  199  A    between atoms: _495  and  _496
REMARK  200  A    between atoms: _502  and  _503
REMARK  201  A    between atoms: _508  and  _510
REMARK  202  A    between atoms: _510  and  _511
REMARK  203  A    between atoms: _510  and  _513
REMARK  204  A    between atoms: _513  and  _514
REMARK  205  A    between atoms: _520  and  _522
REMARK  206  A    between atoms: _522  and  _523
REMARK  207  A    between atoms: _522  and  _525
REMARK  208  A    between atoms: _525  and  _526
REMARK  209  A    between atoms: _529  and  _531
REMARK  210  A    between atoms: _531  and  _532
REMARK  211  A    between atoms: _534  and  _536
REMARK  212  A    between atoms: _536  and  _537
REMARK  213  A    between atoms: _536  and  _539
REMARK  214  A    between atoms: _539  and  _540
REMARK  215  A    between atoms: _543  and  _545
REMARK  216  A    between atoms: _545  and  _546
REMARK  217  A    between atoms: _545  and  _548
REMARK  218  A    between atoms: _548  and  _549
REMARK  219  A    between atoms: _555  and  _557
REMARK  220  A    between atoms: _557  and  _558
REMARK  221  A    between atoms: _557  and  _560
REMARK  222  A    between atoms: _560  and  _561
REMARK  223  A    between atoms: _561  and  _562
REMARK  224  A    between atoms: _567  and  _569
REMARK  225  A    between atoms: _569  and  _570
REMARK  226  A    between atoms: _569  and  _572
REMARK  227  A    between atoms: _572  and  _573
REMARK  228  A    between atoms: _576  and  _578
REMARK  229  A    between atoms: _578  and  _579
REMARK  230  A    between atoms: _578  and  _581
REMARK  231  A    between atoms: _581  and  _582
REMARK  232  A    between atoms: _584  and  _586
REMARK  233  A    between atoms: _586  and  _587
REMARK  234  A    between atoms: _586  and  _589
REMARK  235  A    between atoms: _589  and  _590
REMARK  236  A    between atoms: _596  and  _598
REMARK  237  A    between atoms: _598  and  _599
REMARK  238  A    between atoms: _598  and  _601
REMARK  239  A    between atoms: _601  and  _602
REMARK  240  A    between atoms: _607  and  _608
REMARK  241  A    between atoms: _610  and  _612
REMARK  242  A    between atoms: _612  and  _613
REMARK  243  A    between atoms: _612  and  _615
REMARK  244  A    between atoms: _615  and  _616
REMARK                            x       y       z     vdW  Elec       q    Type
REMARK                         _______ _______ _______ _____ _____    ______ ____
ROOT
ATOM      1  O   HOH     1     -30.726  -4.570  44.102  0.00  0.00    +0.000 OA
ENDROOT
TORSDOF 0
REMARK  Name = ../refined-set-2016/4ido/4ido_pocket.pdb
REMARK  244 active torsions:
REMARK  status: ('A' for Active; 'I' for Inactive)
REMARK    1  A    between atoms: _1  and  _3
REMARK    2  A    between atoms: _3  and  _4
REMARK    3  A    between atoms: _3  and  _6
REMARK    4  A    between atoms: _9  and  _11
REMARK    5  A    between atoms: _11  and  _12
REMARK    6  A    between atoms: _15  and  _17
REMARK    7  A    between atoms: _17  and  _18
REMARK    8  A    between atoms: _20  and  _22
REMARK    9  A    between atoms: _22  and  _23
REMARK   10  A    between atoms: _26  and  _28
REMARK   11  A    between atoms: _28  and  _29
REMARK   12  A    between atoms: _28  and  _31
REMARK   13  A    between atoms: _31  and  _32
REMARK   14  A    between atoms: _38  and  _40
REMARK   15  A    between atoms: _40  and  _41
REMARK   16  A    between atoms: _40  and  _43
REMARK   17  A    between atoms: _43  and  _44
REMARK   18  A    between atoms: _44  and  _45
REMARK   19  A    between atoms: _45  and  _46
REMARK   20  A    between atoms: _55  and  _57
REMARK   21  A    between atoms: _57  and  _58
REMARK   22  A    between atoms: _57  and  _60
REMARK   23  A    between atoms: _60  and  _61
REMARK   24  A    between atoms: _61  and  _62
REMARK   25  A    between atoms: _62  and  _63
REMARK   26  A    between atoms: _63  and  _64
REMARK   27  A    between atoms: _68  and  _70
REMARK   28  A    between atoms: _70  and  _71
REMARK   29  A    between atoms: _73  and  _75
REMARK   30  A    between atoms: _75  and  _76
REMARK   31  A    between atoms: _75  and  _78
REMARK   32  A    between atoms: _78  and  _79
REMARK   33  A    between atoms: _79  and  _80
REMARK   34  A    between atoms: _80  and  _81
REMARK   35  A    between atoms: _81  and  _82
REMARK   36  A    between atoms: _86  and  _88
REMARK   37  A    between atoms: _88  and  _89
REMARK   38  A    between atoms: _88  and  _91
REMARK   39  A    between atoms: _91  and  _92
REMARK   40  A    between atoms: _94  and  _96
REMARK   41  A    between atoms: _96  and  _97
REMARK   42  A    between atoms: _96  and  _99
REMARK   43  A    between atoms: _99  and  _100
REMARK   44  A    between atoms: _106  and  _108
REMARK   45  A    between atoms: _108  and  _109
REMARK   46  A    between atoms: _108  and  _111
REMARK   47  A    between atoms: _111  and  _112
REMARK   48  A    between atoms: _115  and  _117
REMARK   49  A    between atoms: _117  and  _118
REMARK   50  A    between atoms: _117  and  _120
REMARK   51  A    between atoms: _120  and  _121
REMARK   52  A    between atoms: _121  and  _122
REMARK   53  A    between atoms: _124  and  _126
REMARK   54  A    between atoms: _126  and  _127
REMARK   55  A    between atoms: _126  and  _129
REMARK   56  A    between atoms: _129  and  _130
REMARK   57  A    between atoms: _133  and  _135
REMARK   58  A    between atoms: _135  and  _136
REMARK   59  A    between atoms: _135  and  _138
REMARK   60  A    between atoms: _138  and  _139
REMARK   61  A    between atoms: _145  and  _147
REMARK   62  A    between atoms: _147  and  _148
REMARK   63  A    between atoms: _147  and  _150
REMARK   64  A    between atoms: _150  and  _151
REMARK   65  A    between atoms: _154  and  _156
REMARK   66  A    between atoms: _156  and  _157
REMARK   67  A    between atoms: _156  and  _159
REMARK   68  A    between atoms: _159  and  _160
REMARK   69  A    between atoms: _166  and  _168
REMARK   70  A    between atoms: _168  and  _169
REMARK   71  A    between atoms: _168  and  _171
REMARK   72  A    between atoms: _171  and  _172
REMARK   73  A    between atoms: _174  and  _176
REMARK   74  A    between atoms: _176  and  _177
REMARK   75  A    between atoms: _176  and  _179
REMARK   76  A    between atoms: _179  and  _180
REMARK   77  A    between atoms: _190  and  _192
REMARK   78  A    between atoms: _192  and  _193
REMARK   79  A    between atoms: _192  and  _195
REMARK   80  A    between atoms: _195  and  _196
REMARK   81  A    between atoms: _196  and  _197
REMARK   82  A    between atoms: _197  and  _198
REMARK   83  A    between atoms: _207  and  _209
REMARK   84  A    between atoms: _209  and  _210
REMARK   85  A    between atoms: _212  and  _214
REMARK   86  A    between atoms: _214  and  _215
REMARK   87  A    between atoms: _217  and  _219
REMARK   88  A    between atoms: _219  and  _220
REMARK   89  A    between atoms: _219  and  _222
REMARK   90  A    between atoms: _222  and  _223
REMARK   91  A    between atoms: _223  and  _224
REMARK   92  A    between atoms: _227  and  _229
REMARK   93  A    between atoms: _229  and  _230
REMARK   94  A    between atoms: _229  and  _232
REMARK   95  A    between atoms: _232  and  _233
REMARK   96  A    between atoms: _233  and  _234
REMARK   97  A    between atoms: _234  and  _235
REMARK   98  A    between atoms: _244  and  _246
REMARK   99  A    between atoms: _246  and  _247
REMARK  100  A    between atoms: _246  and  _249
REMARK  101  A    between atoms: _249  and  _250
REMARK  102  A    between atoms: _250  and  _251
REMARK  103  A    between atoms: _254  and  _256
REMARK  104  A    between atoms: _256  and  _257
REMARK  105  A    between atoms: _256  and  _259
REMARK  106  A    between atoms: _259  and  _260
REMARK  107  A    between atoms: _263  and  _265
REMARK  108  A    between atoms: _265  and  _266
REMARK  109  A    between atoms: _265  and  _268
REMARK  110  A    between atoms: _268  and  _269
REMARK  111  A    between atoms: _272  and  _274
REMARK  112  A    between atoms: _274  and  _275
REMARK  113  A    between atoms: _274  and  _277
REMARK  114  A    between atoms: _277  and  _278
REMARK  115  A    between atoms: _281  and  _283
REMARK  116  A    between atoms: _283  and  _284
REMARK  117  A    between atoms: _283  and  _286
REMARK  118  A    between atoms: _286  and  _287
REMARK  119  A    between atoms: _287  and  _288
REMARK  120  A    between atoms: _293  and  _295
REMARK  121  A    between atoms: _295  and  _296
REMARK  122  A    between atoms: _298  and  _300
REMARK  123  A    between atoms: _300  and  _301
REMARK  124  A    between atoms: _300  and  _303
REMARK  125  A    between atoms: _303  and  _304
REMARK  126  A    between atoms: _307  and  _309
REMARK  127  A    between atoms: _309  and  _310
REMARK  128  A    between atoms: _309  and  _312
REMARK  129  A    between atoms: _312  and  _313
REMARK  130  A    between atoms: _318  and  _320
REMARK  131  A    between atoms: _320  and  _321
REMARK  132  A    between atoms: _320  and  _323
REMARK  133  A    between atoms: _323  and  _324
REMARK  134  A    between atoms: _327  and  _329
REMARK  135  A    between atoms: _329  and  _330
REMARK  136  A    between atoms: _329  and  _332
REMARK  137  A    between atoms: _332  and  _333
REMARK  138  A    between atoms: _335  and  _337
REMARK  139  A    between atoms: _337  and  _338
REMARK  140  A    between atoms: _337  and  _340
REMARK  141  A    between atoms: _340  and  _341
REMARK  142  A    between atoms: _341  and  _342
REMARK  143  A    between atoms: _347  and  _349
REMARK  144  A    between atoms: _349  and  _350
REMARK  145  A    between atoms: _349  and  _352
REMARK  146  A    between atoms: _352  and  _353
REMARK  147  A    between atoms: _356  and  _358
REMARK  148  A    between atoms: _358  and  _359
REMARK  149  A    between atoms: _358  and  _361
REMARK  150  A    between atoms: _364  and  _366
REMARK  151  A    between atoms: _366  and  _367
REMARK  152  A    between atoms: _366  and  _369
REMARK  153  A    between atoms: _369  and  _370
REMARK  154  A    between atoms: _370  and  _371
REMARK  155  A    between atoms: _371  and  _372
REMARK  156  A    between atoms: _381  and  _383
REMARK  157  A    between atoms: _383  and  _384
REMARK  158  A    between atoms: _383  and  _386
REMARK  159  A    between atoms: _386  and  _387
REMARK  160  A    between atoms: _390  and  _392
REMARK  161  A    between atoms: _392  and  _393
REMARK  162  A    between atoms: _392  and  _395
REMARK  163  A    between atoms: _395  and  _396
REMARK  164  A    between atoms: _406  and  _408
REMARK  165  A    between atoms: _408  and  _409
REMARK  166  A    between atoms: _408  and  _411
REMARK  167  A    between atoms: _411  and  _412
REMARK  168  A    between atoms: _416  and  _417
REMARK  169  A    between atoms: _422  and  _424
REMARK  170  A    between atoms: _424  and  _425
REMARK  171  A    between atoms: _424  and  _427
REMARK  172  A    between atoms: _427  and  _428
REMARK  173  A    between atoms: _434  and  _435
REMARK  174  A    between atoms: _440  and  _442
REMARK  175  A    between atoms: _442  and  _443
REMARK  176  A    between atoms: _445  and  _447
REMARK  177  A    between atoms: _447  and  _448
REMARK  178  A    between atoms: _447  and  _450
REMARK  179  A    between atoms: _450  and  _451
REMARK  180  A    between atoms: _454  and  _456
REMARK  181  A    between atoms: _456  and  _457
REMARK  182  A    between atoms: _456  and  _459
REMARK  183  A    between atoms: _459  and  _460
REMARK  184  A    between atoms: _460  and  _461
REMARK  185  A    between atoms: _461  and  _462
REMARK  186  A    between atoms: _462  and  _463
REMARK  187  A    between atoms: _467  and  _469
REMARK  188  A    between atoms: _469  and  _470
REMARK  189  A    between atoms: _469  and  _472
REMARK  190  A    between atoms: _475  and  _477
REMARK  191  A    between atoms: _477  and  _478
REMARK  192  A    between atoms: _481  and  _483
REMARK  193  A    between atoms: _483  and  _484
REMARK  194  A    between atoms: _483  and  _486
REMARK  195  A    between atoms: _486  and  _487
REMARK  196  A    between atoms: _490  and  _492
REMARK  197  A    between atoms: _492  and  _493
REMARK  198  A    between atoms: _492  and  _495
REMARK  199  A    between atoms: _495  and  _496
REMARK  200  A    between atoms: _502  and  _503
REMARK  201  A    between atoms: _508  and  _510
REMARK  202  A    between atoms: _510  and  _511
REMARK  203  A    between atoms: _510  and  _513
REMARK  204  A    between atoms: _513  and  _514
REMARK  205  A    between atoms: _520  and  _522
REMARK  206  A    between atoms: _522  and  _523
REMARK  207  A    between atoms: _522  and  _525
REMARK  208  A    between atoms: _525  and  _526
REMARK  209  A    between atoms: _529  and  _531
REMARK  210  A    between atoms: _531  and  _532
REMARK  211  A    between atoms: _534  and  _536
REMARK  212  A    between atoms: _536  and  _537
REMARK  213  A    between atoms: _536  and  _539
REMARK  214  A    between atoms: _539  and  _540
REMARK  215  A    between atoms: _543  and  _545
REMARK  216  A    between atoms: _545  and  _546
REMARK  217  A    between atoms: _545  and  _548
REMARK  218  A    between atoms: _548  and  _549
REMARK  219  A    between atoms: _555  and  _557
REMARK  220  A    between atoms: _557  and  _558
REMARK  221  A    between atoms: _557  and  _560
REMARK  222  A    between atoms: _560  and  _561
REMARK  223  A    between atoms: _561  and  _562
REMARK  224  A    between atoms: _567  and  _569
REMARK  225  A    between atoms: _569  and  _570
REMARK  226  A    between atoms: _569  and  _572
REMARK  227  A    between atoms: _572  and  _573
REMARK  228  A    between atoms: _576  and  _578
REMARK  229  A    between atoms: _578  and  _579
REMARK  230  A    between atoms: _578  and  _581
REMARK  231  A    between atoms: _581  and  _582
REMARK  232  A    between atoms: _584  and  _586
REMARK  233  A    between atoms: _586  and  _587
REMARK  234  A    between atoms: _586  and  _589
REMARK  235  A    between atoms: _589  and  _590
REMARK  236  A    between atoms: _596  and  _598
REMARK  237  A    between atoms: _598  and  _599
REMARK  238  A    between atoms: _598  and  _601
REMARK  239  A    between atoms: _601  and  _602
REMARK  240  A    between atoms: _607  and  _608
REMARK  241  A    between atoms: _610  and  _612
REMARK  242  A    between atoms: _612  and  _613
REMARK  243  A    between atoms: _612  and  _615
REMARK  244  A    between atoms: _615  and  _616
REMARK                            x       y       z     vdW  Elec       q    Type
REMARK                         _______ _______ _______ _____ _____    ______ ____
ROOT
ATOM      1  O   HOH     1     -29.790   1.945  34.313  0.00  0.00    +0.000 OA
ENDROOT
TORSDOF 0
REMARK  Name = ../refined-set-2016/4ido/4ido_pocket.pdb
REMARK  244 active torsions:
REMARK  status: ('A' for Active; 'I' for Inactive)
REMARK    1  A    between atoms: _1  and  _3
REMARK    2  A    between atoms: _3  and  _4
REMARK    3  A    between atoms: _3  and  _6
REMARK    4  A    between atoms: _9  and  _11
REMARK    5  A    between atoms: _11  and  _12
REMARK    6  A    between atoms: _15  and  _17
REMARK    7  A    between atoms: _17  and  _18
REMARK    8  A    between atoms: _20  and  _22
REMARK    9  A    between atoms: _22  and  _23
REMARK   10  A    between atoms: _26  and  _28
REMARK   11  A    between atoms: _28  and  _29
REMARK   12  A    between atoms: _28  and  _31
REMARK   13  A    between atoms: _31  and  _32
REMARK   14  A    between atoms: _38  and  _40
REMARK   15  A    between atoms: _40  and  _41
REMARK   16  A    between atoms: _40  and  _43
REMARK   17  A    between atoms: _43  and  _44
REMARK   18  A    between atoms: _44  and  _45
REMARK   19  A    between atoms: _45  and  _46
REMARK   20  A    between atoms: _55  and  _57
REMARK   21  A    between atoms: _57  and  _58
REMARK   22  A    between atoms: _57  and  _60
REMARK   23  A    between atoms: _60  and  _61
REMARK   24  A    between atoms: _61  and  _62
REMARK   25  A    between atoms: _62  and  _63
REMARK   26  A    between atoms: _63  and  _64
REMARK   27  A    between atoms: _68  and  _70
REMARK   28  A    between atoms: _70  and  _71
REMARK   29  A    between atoms: _73  and  _75
REMARK   30  A    between atoms: _75  and  _76
REMARK   31  A    between atoms: _75  and  _78
REMARK   32  A    between atoms: _78  and  _79
REMARK   33  A    between atoms: _79  and  _80
REMARK   34  A    between atoms: _80  and  _81
REMARK   35  A    between atoms: _81  and  _82
REMARK   36  A    between atoms: _86  and  _88
REMARK   37  A    between atoms: _88  and  _89
REMARK   38  A    between atoms: _88  and  _91
REMARK   39  A    between atoms: _91  and  _92
REMARK   40  A    between atoms: _94  and  _96
REMARK   41  A    between atoms: _96  and  _97
REMARK   42  A    between atoms: _96  and  _99
REMARK   43  A    between atoms: _99  and  _100
REMARK   44  A    between atoms: _106  and  _108
REMARK   45  A    between atoms: _108  and  _109
REMARK   46  A    between atoms: _108  and  _111
REMARK   47  A    between atoms: _111  and  _112
REMARK   48  A    between atoms: _115  and  _117
REMARK   49  A    between atoms: _117  and  _118
REMARK   50  A    between atoms: _117  and  _120
REMARK   51  A    between atoms: _120  and  _121
REMARK   52  A    between atoms: _121  and  _122
REMARK   53  A    between atoms: _124  and  _126
REMARK   54  A    between atoms: _126  and  _127
REMARK   55  A    between atoms: _126  and  _129
REMARK   56  A    between atoms: _129  and  _130
REMARK   57  A    between atoms: _133  and  _135
REMARK   58  A    between atoms: _135  and  _136
REMARK   59  A    between atoms: _135  and  _138
REMARK   60  A    between atoms: _138  and  _139
REMARK   61  A    between atoms: _145  and  _147
REMARK   62  A    between atoms: _147  and  _148
REMARK   63  A    between atoms: _147  and  _150
REMARK   64  A    between atoms: _150  and  _151
REMARK   65  A    between atoms: _154  and  _156
REMARK   66  A    between atoms: _156  and  _157
REMARK   67  A    between atoms: _156  and  _159
REMARK   68  A    between atoms: _159  and  _160
REMARK   69  A    between atoms: _166  and  _168
REMARK   70  A    between atoms: _168  and  _169
REMARK   71  A    between atoms: _168  and  _171
REMARK   72  A    between atoms: _171  and  _172
REMARK   73  A    between atoms: _174  and  _176
REMARK   74  A    between atoms: _176  and  _177
REMARK   75  A    between atoms: _176  and  _179
REMARK   76  A    between atoms: _179  and  _180
REMARK   77  A    between atoms: _190  and  _192
REMARK   78  A    between atoms: _192  and  _193
REMARK   79  A    between atoms: _192  and  _195
REMARK   80  A    between atoms: _195  and  _196
REMARK   81  A    between atoms: _196  and  _197
REMARK   82  A    between atoms: _197  and  _198
REMARK   83  A    between atoms: _207  and  _209
REMARK   84  A    between atoms: _209  and  _210
REMARK   85  A    between atoms: _212  and  _214
REMARK   86  A    between atoms: _214  and  _215
REMARK   87  A    between atoms: _217  and  _219
REMARK   88  A    between atoms: _219  and  _220
REMARK   89  A    between atoms: _219  and  _222
REMARK   90  A    between atoms: _222  and  _223
REMARK   91  A    between atoms: _223  and  _224
REMARK   92  A    between atoms: _227  and  _229
REMARK   93  A    between atoms: _229  and  _230
REMARK   94  A    between atoms: _229  and  _232
REMARK   95  A    between atoms: _232  and  _233
REMARK   96  A    between atoms: _233  and  _234
REMARK   97  A    between atoms: _234  and  _235
REMARK   98  A    between atoms: _244  and  _246
REMARK   99  A    between atoms: _246  and  _247
REMARK  100  A    between atoms: _246  and  _249
REMARK  101  A    between atoms: _249  and  _250
REMARK  102  A    between atoms: _250  and  _251
REMARK  103  A    between atoms: _254  and  _256
REMARK  104  A    between atoms: _256  and  _257
REMARK  105  A    between atoms: _256  and  _259
REMARK  106  A    between atoms: _259  and  _260
REMARK  107  A    between atoms: _263  and  _265
REMARK  108  A    between atoms: _265  and  _266
REMARK  109  A    between atoms: _265  and  _268
REMARK  110  A    between atoms: _268  and  _269
REMARK  111  A    between atoms: _272  and  _274
REMARK  112  A    between atoms: _274  and  _275
REMARK  113  A    between atoms: _274  and  _277
REMARK  114  A    between atoms: _277  and  _278
REMARK  115  A    between atoms: _281  and  _283
REMARK  116  A    between atoms: _283  and  _284
REMARK  117  A    between atoms: _283  and  _286
REMARK  118  A    between atoms: _286  and  _287
REMARK  119  A    between atoms: _287  and  _288
REMARK  120  A    between atoms: _293  and  _295
REMARK  121  A    between atoms: _295  and  _296
REMARK  122  A    between atoms: _298  and  _300
REMARK  123  A    between atoms: _300  and  _301
REMARK  124  A    between atoms: _300  and  _303
REMARK  125  A    between atoms: _303  and  _304
REMARK  126  A    between atoms: _307  and  _309
REMARK  127  A    between atoms: _309  and  _310
REMARK  128  A    between atoms: _309  and  _312
REMARK  129  A    between atoms: _312  and  _313
REMARK  130  A    between atoms: _318  and  _320
REMARK  131  A    between atoms: _320  and  _321
REMARK  132  A    between atoms: _320  and  _323
REMARK  133  A    between atoms: _323  and  _324
REMARK  134  A    between atoms: _327  and  _329
REMARK  135  A    between atoms: _329  and  _330
REMARK  136  A    between atoms: _329  and  _332
REMARK  137  A    between atoms: _332  and  _333
REMARK  138  A    between atoms: _335  and  _337
REMARK  139  A    between atoms: _337  and  _338
REMARK  140  A    between atoms: _337  and  _340
REMARK  141  A    between atoms: _340  and  _341
REMARK  142  A    between atoms: _341  and  _342
REMARK  143  A    between atoms: _347  and  _349
REMARK  144  A    between atoms: _349  and  _350
REMARK  145  A    between atoms: _349  and  _352
REMARK  146  A    between atoms: _352  and  _353
REMARK  147  A    between atoms: _356  and  _358
REMARK  148  A    between atoms: _358  and  _359
REMARK  149  A    between atoms: _358  and  _361
REMARK  150  A    between atoms: _364  and  _366
REMARK  151  A    between atoms: _366  and  _367
REMARK  152  A    between atoms: _366  and  _369
REMARK  153  A    between atoms: _369  and  _370
REMARK  154  A    between atoms: _370  and  _371
REMARK  155  A    between atoms: _371  and  _372
REMARK  156  A    between atoms: _381  and  _383
REMARK  157  A    between atoms: _383  and  _384
REMARK  158  A    between atoms: _383  and  _386
REMARK  159  A    between atoms: _386  and  _387
REMARK  160  A    between atoms: _390  and  _392
REMARK  161  A    between atoms: _392  and  _393
REMARK  162  A    between atoms: _392  and  _395
REMARK  163  A    between atoms: _395  and  _396
REMARK  164  A    between atoms: _406  and  _408
REMARK  165  A    between atoms: _408  and  _409
REMARK  166  A    between atoms: _408  and  _411
REMARK  167  A    between atoms: _411  and  _412
REMARK  168  A    between atoms: _416  and  _417
REMARK  169  A    between atoms: _422  and  _424
REMARK  170  A    between atoms: _424  and  _425
REMARK  171  A    between atoms: _424  and  _427
REMARK  172  A    between atoms: _427  and  _428
REMARK  173  A    between atoms: _434  and  _435
REMARK  174  A    between atoms: _440  and  _442
REMARK  175  A    between atoms: _442  and  _443
REMARK  176  A    between atoms: _445  and  _447
REMARK  177  A    between atoms: _447  and  _448
REMARK  178  A    between atoms: _447  and  _450
REMARK  179  A    between atoms: _450  and  _451
REMARK  180  A    between atoms: _454  and  _456
REMARK  181  A    between atoms: _456  and  _457
REMARK  182  A    between atoms: _456  and  _459
REMARK  183  A    between atoms: _459  and  _460
REMARK  184  A    between atoms: _460  and  _461
REMARK  185  A    between atoms: _461  and  _462
REMARK  186  A    between atoms: _462  and  _463
REMARK  187  A    between atoms: _467  and  _469
REMARK  188  A    between atoms: _469  and  _470
REMARK  189  A    between atoms: _469  and  _472
REMARK  190  A    between atoms: _475  and  _477
REMARK  191  A    between atoms: _477  and  _478
REMARK  192  A    between atoms: _481  and  _483
REMARK  193  A    between atoms: _483  and  _484
REMARK  194  A    between atoms: _483  and  _486
REMARK  195  A    between atoms: _486  and  _487
REMARK  196  A    between atoms: _490  and  _492
REMARK  197  A    between atoms: _492  and  _493
REMARK  198  A    between atoms: _492  and  _495
REMARK  199  A    between atoms: _495  and  _496
REMARK  200  A    between atoms: _502  and  _503
REMARK  201  A    between atoms: _508  and  _510
REMARK  202  A    between atoms: _510  and  _511
REMARK  203  A    between atoms: _510  and  _513
REMARK  204  A    between atoms: _513  and  _514
REMARK  205  A    between atoms: _520  and  _522
REMARK  206  A    between atoms: _522  and  _523
REMARK  207  A    between atoms: _522  and  _525
REMARK  208  A    between atoms: _525  and  _526
REMARK  209  A    between atoms: _529  and  _531
REMARK  210  A    between atoms: _531  and  _532
REMARK  211  A    between atoms: _534  and  _536
REMARK  212  A    between atoms: _536  and  _537
REMARK  213  A    between atoms: _536  and  _539
REMARK  214  A    between atoms: _539  and  _540
REMARK  215  A    between atoms: _543  and  _545
REMARK  216  A    between atoms: _545  and  _546
REMARK  217  A    between atoms: _545  and  _548
REMARK  218  A    between atoms: _548  and  _549
REMARK  219  A    between atoms: _555  and  _557
REMARK  220  A    between atoms: _557  and  _558
REMARK  221  A    between atoms: _557  and  _560
REMARK  222  A    between atoms: _560  and  _561
REMARK  223  A    between atoms: _561  and  _562
REMARK  224  A    between atoms: _567  and  _569
REMARK  225  A    between atoms: _569  and  _570
REMARK  226  A    between atoms: _569  and  _572
REMARK  227  A    between atoms: _572  and  _573
REMARK  228  A    between atoms: _576  and  _578
REMARK  229  A    between atoms: _578  and  _579
REMARK  230  A    between atoms: _578  and  _581
REMARK  231  A    between atoms: _581  and  _582
REMARK  232  A    between atoms: _584  and  _586
REMARK  233  A    between atoms: _586  and  _587
REMARK  234  A    between atoms: _586  and  _589
REMARK  235  A    between atoms: _589  and  _590
REMARK  236  A    between atoms: _596  and  _598
REMARK  237  A    between atoms: _598  and  _599
REMARK  238  A    between atoms: _598  and  _601
REMARK  239  A    between atoms: _601  and  _602
REMARK  240  A    between atoms: _607  and  _608
REMARK  241  A    between atoms: _610  and  _612
REMARK  242  A    between atoms: _612  and  _613
REMARK  243  A    between atoms: _612  and  _615
REMARK  244  A    between atoms: _615  and  _616
REMARK                            x       y       z     vdW  Elec       q    Type
REMARK                         _______ _______ _______ _____ _____    ______ ____
ROOT
ATOM      1  O   HOH     1     -17.408  -1.398  47.362  0.00  0.00    +0.000 OA
ENDROOT
TORSDOF 0
REMARK  Name = ../refined-set-2016/4ido/4ido_pocket.pdb
REMARK  244 active torsions:
REMARK  status: ('A' for Active; 'I' for Inactive)
REMARK    1  A    between atoms: _1  and  _3
REMARK    2  A    between atoms: _3  and  _4
REMARK    3  A    between atoms: _3  and  _6
REMARK    4  A    between atoms: _9  and  _11
REMARK    5  A    between atoms: _11  and  _12
REMARK    6  A    between atoms: _15  and  _17
REMARK    7  A    between atoms: _17  and  _18
REMARK    8  A    between atoms: _20  and  _22
REMARK    9  A    between atoms: _22  and  _23
REMARK   10  A    between atoms: _26  and  _28
REMARK   11  A    between atoms: _28  and  _29
REMARK   12  A    between atoms: _28  and  _31
REMARK   13  A    between atoms: _31  and  _32
REMARK   14  A    between atoms: _38  and  _40
REMARK   15  A    between atoms: _40  and  _41
REMARK   16  A    between atoms: _40  and  _43
REMARK   17  A    between atoms: _43  and  _44
REMARK   18  A    between atoms: _44  and  _45
REMARK   19  A    between atoms: _45  and  _46
REMARK   20  A    between atoms: _55  and  _57
REMARK   21  A    between atoms: _57  and  _58
REMARK   22  A    between atoms: _57  and  _60
REMARK   23  A    between atoms: _60  and  _61
REMARK   24  A    between atoms: _61  and  _62
REMARK   25  A    between atoms: _62  and  _63
REMARK   26  A    between atoms: _63  and  _64
REMARK   27  A    between atoms: _68  and  _70
REMARK   28  A    between atoms: _70  and  _71
REMARK   29  A    between atoms: _73  and  _75
REMARK   30  A    between atoms: _75  and  _76
REMARK   31  A    between atoms: _75  and  _78
REMARK   32  A    between atoms: _78  and  _79
REMARK   33  A    between atoms: _79  and  _80
REMARK   34  A    between atoms: _80  and  _81
REMARK   35  A    between atoms: _81  and  _82
REMARK   36  A    between atoms: _86  and  _88
REMARK   37  A    between atoms: _88  and  _89
REMARK   38  A    between atoms: _88  and  _91
REMARK   39  A    between atoms: _91  and  _92
REMARK   40  A    between atoms: _94  and  _96
REMARK   41  A    between atoms: _96  and  _97
REMARK   42  A    between atoms: _96  and  _99
REMARK   43  A    between atoms: _99  and  _100
REMARK   44  A    between atoms: _106  and  _108
REMARK   45  A    between atoms: _108  and  _109
REMARK   46  A    between atoms: _108  and  _111
REMARK   47  A    between atoms: _111  and  _112
REMARK   48  A    between atoms: _115  and  _117
REMARK   49  A    between atoms: _117  and  _118
REMARK   50  A    between atoms: _117  and  _120
REMARK   51  A    between atoms: _120  and  _121
REMARK   52  A    between atoms: _121  and  _122
REMARK   53  A    between atoms: _124  and  _126
REMARK   54  A    between atoms: _126  and  _127
REMARK   55  A    between atoms: _126  and  _129
REMARK   56  A    between atoms: _129  and  _130
REMARK   57  A    between atoms: _133  and  _135
REMARK   58  A    between atoms: _135  and  _136
REMARK   59  A    between atoms: _135  and  _138
REMARK   60  A    between atoms: _138  and  _139
REMARK   61  A    between atoms: _145  and  _147
REMARK   62  A    between atoms: _147  and  _148
REMARK   63  A    between atoms: _147  and  _150
REMARK   64  A    between atoms: _150  and  _151
REMARK   65  A    between atoms: _154  and  _156
REMARK   66  A    between atoms: _156  and  _157
REMARK   67  A    between atoms: _156  and  _159
REMARK   68  A    between atoms: _159  and  _160
REMARK   69  A    between atoms: _166  and  _168
REMARK   70  A    between atoms: _168  and  _169
REMARK   71  A    between atoms: _168  and  _171
REMARK   72  A    between atoms: _171  and  _172
REMARK   73  A    between atoms: _174  and  _176
REMARK   74  A    between atoms: _176  and  _177
REMARK   75  A    between atoms: _176  and  _179
REMARK   76  A    between atoms: _179  and  _180
REMARK   77  A    between atoms: _190  and  _192
REMARK   78  A    between atoms: _192  and  _193
REMARK   79  A    between atoms: _192  and  _195
REMARK   80  A    between atoms: _195  and  _196
REMARK   81  A    between atoms: _196  and  _197
REMARK   82  A    between atoms: _197  and  _198
REMARK   83  A    between atoms: _207  and  _209
REMARK   84  A    between atoms: _209  and  _210
REMARK   85  A    between atoms: _212  and  _214
REMARK   86  A    between atoms: _214  and  _215
REMARK   87  A    between atoms: _217  and  _219
REMARK   88  A    between atoms: _219  and  _220
REMARK   89  A    between atoms: _219  and  _222
REMARK   90  A    between atoms: _222  and  _223
REMARK   91  A    between atoms: _223  and  _224
REMARK   92  A    between atoms: _227  and  _229
REMARK   93  A    between atoms: _229  and  _230
REMARK   94  A    between atoms: _229  and  _232
REMARK   95  A    between atoms: _232  and  _233
REMARK   96  A    between atoms: _233  and  _234
REMARK   97  A    between atoms: _234  and  _235
REMARK   98  A    between atoms: _244  and  _246
REMARK   99  A    between atoms: _246  and  _247
REMARK  100  A    between atoms: _246  and  _249
REMARK  101  A    between atoms: _249  and  _250
REMARK  102  A    between atoms: _250  and  _251
REMARK  103  A    between atoms: _254  and  _256
REMARK  104  A    between atoms: _256  and  _257
REMARK  105  A    between atoms: _256  and  _259
REMARK  106  A    between atoms: _259  and  _260
REMARK  107  A    between atoms: _263  and  _265
REMARK  108  A    between atoms: _265  and  _266
REMARK  109  A    between atoms: _265  and  _268
REMARK  110  A    between atoms: _268  and  _269
REMARK  111  A    between atoms: _272  and  _274
REMARK  112  A    between atoms: _274  and  _275
REMARK  113  A    between atoms: _274  and  _277
REMARK  114  A    between atoms: _277  and  _278
REMARK  115  A    between atoms: _281  and  _283
REMARK  116  A    between atoms: _283  and  _284
REMARK  117  A    between atoms: _283  and  _286
REMARK  118  A    between atoms: _286  and  _287
REMARK  119  A    between atoms: _287  and  _288
REMARK  120  A    between atoms: _293  and  _295
REMARK  121  A    between atoms: _295  and  _296
REMARK  122  A    between atoms: _298  and  _300
REMARK  123  A    between atoms: _300  and  _301
REMARK  124  A    between atoms: _300  and  _303
REMARK  125  A    between atoms: _303  and  _304
REMARK  126  A    between atoms: _307  and  _309
REMARK  127  A    between atoms: _309  and  _310
REMARK  128  A    between atoms: _309  and  _312
REMARK  129  A    between atoms: _312  and  _313
REMARK  130  A    between atoms: _318  and  _320
REMARK  131  A    between atoms: _320  and  _321
REMARK  132  A    between atoms: _320  and  _323
REMARK  133  A    between atoms: _323  and  _324
REMARK  134  A    between atoms: _327  and  _329
REMARK  135  A    between atoms: _329  and  _330
REMARK  136  A    between atoms: _329  and  _332
REMARK  137  A    between atoms: _332  and  _333
REMARK  138  A    between atoms: _335  and  _337
REMARK  139  A    between atoms: _337  and  _338
REMARK  140  A    between atoms: _337  and  _340
REMARK  141  A    between atoms: _340  and  _341
REMARK  142  A    between atoms: _341  and  _342
REMARK  143  A    between atoms: _347  and  _349
REMARK  144  A    between atoms: _349  and  _350
REMARK  145  A    between atoms: _349  and  _352
REMARK  146  A    between atoms: _352  and  _353
REMARK  147  A    between atoms: _356  and  _358
REMARK  148  A    between atoms: _358  and  _359
REMARK  149  A    between atoms: _358  and  _361
REMARK  150  A    between atoms: _364  and  _366
REMARK  151  A    between atoms: _366  and  _367
REMARK  152  A    between atoms: _366  and  _369
REMARK  153  A    between atoms: _369  and  _370
REMARK  154  A    between atoms: _370  and  _371
REMARK  155  A    between atoms: _371  and  _372
REMARK  156  A    between atoms: _381  and  _383
REMARK  157  A    between atoms: _383  and  _384
REMARK  158  A    between atoms: _383  and  _386
REMARK  159  A    between atoms: _386  and  _387
REMARK  160  A    between atoms: _390  and  _392
REMARK  161  A    between atoms: _392  and  _393
REMARK  162  A    between atoms: _392  and  _395
REMARK  163  A    between atoms: _395  and  _396
REMARK  164  A    between atoms: _406  and  _408
REMARK  165  A    between atoms: _408  and  _409
REMARK  166  A    between atoms: _408  and  _411
REMARK  167  A    between atoms: _411  and  _412
REMARK  168  A    between atoms: _416  and  _417
REMARK  169  A    between atoms: _422  and  _424
REMARK  170  A    between atoms: _424  and  _425
REMARK  171  A    between atoms: _424  and  _427
REMARK  172  A    between atoms: _427  and  _428
REMARK  173  A    between atoms: _434  and  _435
REMARK  174  A    between atoms: _440  and  _442
REMARK  175  A    between atoms: _442  and  _443
REMARK  176  A    between atoms: _445  and  _447
REMARK  177  A    between atoms: _447  and  _448
REMARK  178  A    between atoms: _447  and  _450
REMARK  179  A    between atoms: _450  and  _451
REMARK  180  A    between atoms: _454  and  _456
REMARK  181  A    between atoms: _456  and  _457
REMARK  182  A    between atoms: _456  and  _459
REMARK  183  A    between atoms: _459  and  _460
REMARK  184  A    between atoms: _460  and  _461
REMARK  185  A    between atoms: _461  and  _462
REMARK  186  A    between atoms: _462  and  _463
REMARK  187  A    between atoms: _467  and  _469
REMARK  188  A    between atoms: _469  and  _470
REMARK  189  A    between atoms: _469  and  _472
REMARK  190  A    between atoms: _475  and  _477
REMARK  191  A    between atoms: _477  and  _478
REMARK  192  A    between atoms: _481  and  _483
REMARK  193  A    between atoms: _483  and  _484
REMARK  194  A    between atoms: _483  and  _486
REMARK  195  A    between atoms: _486  and  _487
REMARK  196  A    between atoms: _490  and  _492
REMARK  197  A    between atoms: _492  and  _493
REMARK  198  A    between atoms: _492  and  _495
REMARK  199  A    between atoms: _495  and  _496
REMARK  200  A    between atoms: _502  and  _503
REMARK  201  A    between atoms: _508  and  _510
REMARK  202  A    between atoms: _510  and  _511
REMARK  203  A    between atoms: _510  and  _513
REMARK  204  A    between atoms: _513  and  _514
REMARK  205  A    between atoms: _520  and  _522
REMARK  206  A    between atoms: _522  and  _523
REMARK  207  A    between atoms: _522  and  _525
REMARK  208  A    between atoms: _525  and  _526
REMARK  209  A    between atoms: _529  and  _531
REMARK  210  A    between atoms: _531  and  _532
REMARK  211  A    between atoms: _534  and  _536
REMARK  212  A    between atoms: _536  and  _537
REMARK  213  A    between atoms: _536  and  _539
REMARK  214  A    between atoms: _539  and  _540
REMARK  215  A    between atoms: _543  and  _545
REMARK  216  A    between atoms: _545  and  _546
REMARK  217  A    between atoms: _545  and  _548
REMARK  218  A    between atoms: _548  and  _549
REMARK  219  A    between atoms: _555  and  _557
REMARK  220  A    between atoms: _557  and  _558
REMARK  221  A    between atoms: _557  and  _560
REMARK  222  A    between atoms: _560  and  _561
REMARK  223  A    between atoms: _561  and  _562
REMARK  224  A    between atoms: _567  and  _569
REMARK  225  A    between atoms: _569  and  _570
REMARK  226  A    between atoms: _569  and  _572
REMARK  227  A    between atoms: _572  and  _573
REMARK  228  A    between atoms: _576  and  _578
REMARK  229  A    between atoms: _578  and  _579
REMARK  230  A    between atoms: _578  and  _581
REMARK  231  A    between atoms: _581  and  _582
REMARK  232  A    between atoms: _584  and  _586
REMARK  233  A    between atoms: _586  and  _587
REMARK  234  A    between atoms: _586  and  _589
REMARK  235  A    between atoms: _589  and  _590
REMARK  236  A    between atoms: _596  and  _598
REMARK  237  A    between atoms: _598  and  _599
REMARK  238  A    between atoms: _598  and  _601
REMARK  239  A    between atoms: _601  and  _602
REMARK  240  A    between atoms: _607  and  _608
REMARK  241  A    between atoms: _610  and  _612
REMARK  242  A    between atoms: _612  and  _613
REMARK  243  A    between atoms: _612  and  _615
REMARK  244  A    between atoms: _615  and  _616
REMARK                            x       y       z     vdW  Elec       q    Type
REMARK                         _______ _______ _______ _____ _____    ______ ____
ROOT
ATOM      1  O   HOH     1     -30.805  -4.733  37.116  0.00  0.00    +0.000 OA
ENDROOT
TORSDOF 0
REMARK  Name = ../refined-set-2016/4ido/4ido_pocket.pdb
REMARK  244 active torsions:
REMARK  status: ('A' for Active; 'I' for Inactive)
REMARK    1  A    between atoms: _1  and  _3
REMARK    2  A    between atoms: _3  and  _4
REMARK    3  A    between atoms: _3  and  _6
REMARK    4  A    between atoms: _9  and  _11
REMARK    5  A    between atoms: _11  and  _12
REMARK    6  A    between atoms: _15  and  _17
REMARK    7  A    between atoms: _17  and  _18
REMARK    8  A    between atoms: _20  and  _22
REMARK    9  A    between atoms: _22  and  _23
REMARK   10  A    between atoms: _26  and  _28
REMARK   11  A    between atoms: _28  and  _29
REMARK   12  A    between atoms: _28  and  _31
REMARK   13  A    between atoms: _31  and  _32
REMARK   14  A    between atoms: _38  and  _40
REMARK   15  A    between atoms: _40  and  _41
REMARK   16  A    between atoms: _40  and  _43
REMARK   17  A    between atoms: _43  and  _44
REMARK   18  A    between atoms: _44  and  _45
REMARK   19  A    between atoms: _45  and  _46
REMARK   20  A    between atoms: _55  and  _57
REMARK   21  A    between atoms: _57  and  _58
REMARK   22  A    between atoms: _57  and  _60
REMARK   23  A    between atoms: _60  and  _61
REMARK   24  A    between atoms: _61  and  _62
REMARK   25  A    between atoms: _62  and  _63
REMARK   26  A    between atoms: _63  and  _64
REMARK   27  A    between atoms: _68  and  _70
REMARK   28  A    between atoms: _70  and  _71
REMARK   29  A    between atoms: _73  and  _75
REMARK   30  A    between atoms: _75  and  _76
REMARK   31  A    between atoms: _75  and  _78
REMARK   32  A    between atoms: _78  and  _79
REMARK   33  A    between atoms: _79  and  _80
REMARK   34  A    between atoms: _80  and  _81
REMARK   35  A    between atoms: _81  and  _82
REMARK   36  A    between atoms: _86  and  _88
REMARK   37  A    between atoms: _88  and  _89
REMARK   38  A    between atoms: _88  and  _91
REMARK   39  A    between atoms: _91  and  _92
REMARK   40  A    between atoms: _94  and  _96
REMARK   41  A    between atoms: _96  and  _97
REMARK   42  A    between atoms: _96  and  _99
REMARK   43  A    between atoms: _99  and  _100
REMARK   44  A    between atoms: _106  and  _108
REMARK   45  A    between atoms: _108  and  _109
REMARK   46  A    between atoms: _108  and  _111
REMARK   47  A    between atoms: _111  and  _112
REMARK   48  A    between atoms: _115  and  _117
REMARK   49  A    between atoms: _117  and  _118
REMARK   50  A    between atoms: _117  and  _120
REMARK   51  A    between atoms: _120  and  _121
REMARK   52  A    between atoms: _121  and  _122
REMARK   53  A    between atoms: _124  and  _126
REMARK   54  A    between atoms: _126  and  _127
REMARK   55  A    between atoms: _126  and  _129
REMARK   56  A    between atoms: _129  and  _130
REMARK   57  A    between atoms: _133  and  _135
REMARK   58  A    between atoms: _135  and  _136
REMARK   59  A    between atoms: _135  and  _138
REMARK   60  A    between atoms: _138  and  _139
REMARK   61  A    between atoms: _145  and  _147
REMARK   62  A    between atoms: _147  and  _148
REMARK   63  A    between atoms: _147  and  _150
REMARK   64  A    between atoms: _150  and  _151
REMARK   65  A    between atoms: _154  and  _156
REMARK   66  A    between atoms: _156  and  _157
REMARK   67  A    between atoms: _156  and  _159
REMARK   68  A    between atoms: _159  and  _160
REMARK   69  A    between atoms: _166  and  _168
REMARK   70  A    between atoms: _168  and  _169
REMARK   71  A    between atoms: _168  and  _171
REMARK   72  A    between atoms: _171  and  _172
REMARK   73  A    between atoms: _174  and  _176
REMARK   74  A    between atoms: _176  and  _177
REMARK   75  A    between atoms: _176  and  _179
REMARK   76  A    between atoms: _179  and  _180
REMARK   77  A    between atoms: _190  and  _192
REMARK   78  A    between atoms: _192  and  _193
REMARK   79  A    between atoms: _192  and  _195
REMARK   80  A    between atoms: _195  and  _196
REMARK   81  A    between atoms: _196  and  _197
REMARK   82  A    between atoms: _197  and  _198
REMARK   83  A    between atoms: _207  and  _209
REMARK   84  A    between atoms: _209  and  _210
REMARK   85  A    between atoms: _212  and  _214
REMARK   86  A    between atoms: _214  and  _215
REMARK   87  A    between atoms: _217  and  _219
REMARK   88  A    between atoms: _219  and  _220
REMARK   89  A    between atoms: _219  and  _222
REMARK   90  A    between atoms: _222  and  _223
REMARK   91  A    between atoms: _223  and  _224
REMARK   92  A    between atoms: _227  and  _229
REMARK   93  A    between atoms: _229  and  _230
REMARK   94  A    between atoms: _229  and  _232
REMARK   95  A    between atoms: _232  and  _233
REMARK   96  A    between atoms: _233  and  _234
REMARK   97  A    between atoms: _234  and  _235
REMARK   98  A    between atoms: _244  and  _246
REMARK   99  A    between atoms: _246  and  _247
REMARK  100  A    between atoms: _246  and  _249
REMARK  101  A    between atoms: _249  and  _250
REMARK  102  A    between atoms: _250  and  _251
REMARK  103  A    between atoms: _254  and  _256
REMARK  104  A    between atoms: _256  and  _257
REMARK  105  A    between atoms: _256  and  _259
REMARK  106  A    between atoms: _259  and  _260
REMARK  107  A    between atoms: _263  and  _265
REMARK  108  A    between atoms: _265  and  _266
REMARK  109  A    between atoms: _265  and  _268
REMARK  110  A    between atoms: _268  and  _269
REMARK  111  A    between atoms: _272  and  _274
REMARK  112  A    between atoms: _274  and  _275
REMARK  113  A    between atoms: _274  and  _277
REMARK  114  A    between atoms: _277  and  _278
REMARK  115  A    between atoms: _281  and  _283
REMARK  116  A    between atoms: _283  and  _284
REMARK  117  A    between atoms: _283  and  _286
REMARK  118  A    between atoms: _286  and  _287
REMARK  119  A    between atoms: _287  and  _288
REMARK  120  A    between atoms: _293  and  _295
REMARK  121  A    between atoms: _295  and  _296
REMARK  122  A    between atoms: _298  and  _300
REMARK  123  A    between atoms: _300  and  _301
REMARK  124  A    between atoms: _300  and  _303
REMARK  125  A    between atoms: _303  and  _304
REMARK  126  A    between atoms: _307  and  _309
REMARK  127  A    between atoms: _309  and  _310
REMARK  128  A    between atoms: _309  and  _312
REMARK  129  A    between atoms: _312  and  _313
REMARK  130  A    between atoms: _318  and  _320
REMARK  131  A    between atoms: _320  and  _321
REMARK  132  A    between atoms: _320  and  _323
REMARK  133  A    between atoms: _323  and  _324
REMARK  134  A    between atoms: _327  and  _329
REMARK  135  A    between atoms: _329  and  _330
REMARK  136  A    between atoms: _329  and  _332
REMARK  137  A    between atoms: _332  and  _333
REMARK  138  A    between atoms: _335  and  _337
REMARK  139  A    between atoms: _337  and  _338
REMARK  140  A    between atoms: _337  and  _340
REMARK  141  A    between atoms: _340  and  _341
REMARK  142  A    between atoms: _341  and  _342
REMARK  143  A    between atoms: _347  and  _349
REMARK  144  A    between atoms: _349  and  _350
REMARK  145  A    between atoms: _349  and  _352
REMARK  146  A    between atoms: _352  and  _353
REMARK  147  A    between atoms: _356  and  _358
REMARK  148  A    between atoms: _358  and  _359
REMARK  149  A    between atoms: _358  and  _361
REMARK  150  A    between atoms: _364  and  _366
REMARK  151  A    between atoms: _366  and  _367
REMARK  152  A    between atoms: _366  and  _369
REMARK  153  A    between atoms: _369  and  _370
REMARK  154  A    between atoms: _370  and  _371
REMARK  155  A    between atoms: _371  and  _372
REMARK  156  A    between atoms: _381  and  _383
REMARK  157  A    between atoms: _383  and  _384
REMARK  158  A    between atoms: _383  and  _386
REMARK  159  A    between atoms: _386  and  _387
REMARK  160  A    between atoms: _390  and  _392
REMARK  161  A    between atoms: _392  and  _393
REMARK  162  A    between atoms: _392  and  _395
REMARK  163  A    between atoms: _395  and  _396
REMARK  164  A    between atoms: _406  and  _408
REMARK  165  A    between atoms: _408  and  _409
REMARK  166  A    between atoms: _408  and  _411
REMARK  167  A    between atoms: _411  and  _412
REMARK  168  A    between atoms: _416  and  _417
REMARK  169  A    between atoms: _422  and  _424
REMARK  170  A    between atoms: _424  and  _425
REMARK  171  A    between atoms: _424  and  _427
REMARK  172  A    between atoms: _427  and  _428
REMARK  173  A    between atoms: _434  and  _435
REMARK  174  A    between atoms: _440  and  _442
REMARK  175  A    between atoms: _442  and  _443
REMARK  176  A    between atoms: _445  and  _447
REMARK  177  A    between atoms: _447  and  _448
REMARK  178  A    between atoms: _447  and  _450
REMARK  179  A    between atoms: _450  and  _451
REMARK  180  A    between atoms: _454  and  _456
REMARK  181  A    between atoms: _456  and  _457
REMARK  182  A    between atoms: _456  and  _459
REMARK  183  A    between atoms: _459  and  _460
REMARK  184  A    between atoms: _460  and  _461
REMARK  185  A    between atoms: _461  and  _462
REMARK  186  A    between atoms: _462  and  _463
REMARK  187  A    between atoms: _467  and  _469
REMARK  188  A    between atoms: _469  and  _470
REMARK  189  A    between atoms: _469  and  _472
REMARK  190  A    between atoms: _475  and  _477
REMARK  191  A    between atoms: _477  and  _478
REMARK  192  A    between atoms: _481  and  _483
REMARK  193  A    between atoms: _483  and  _484
REMARK  194  A    between atoms: _483  and  _486
REMARK  195  A    between atoms: _486  and  _487
REMARK  196  A    between atoms: _490  and  _492
REMARK  197  A    between atoms: _492  and  _493
REMARK  198  A    between atoms: _492  and  _495
REMARK  199  A    between atoms: _495  and  _496
REMARK  200  A    between atoms: _502  and  _503
REMARK  201  A    between atoms: _508  and  _510
REMARK  202  A    between atoms: _510  and  _511
REMARK  203  A    between atoms: _510  and  _513
REMARK  204  A    between atoms: _513  and  _514
REMARK  205  A    between atoms: _520  and  _522
REMARK  206  A    between atoms: _522  and  _523
REMARK  207  A    between atoms: _522  and  _525
REMARK  208  A    between atoms: _525  and  _526
REMARK  209  A    between atoms: _529  and  _531
REMARK  210  A    between atoms: _531  and  _532
REMARK  211  A    between atoms: _534  and  _536
REMARK  212  A    between atoms: _536  and  _537
REMARK  213  A    between atoms: _536  and  _539
REMARK  214  A    between atoms: _539  and  _540
REMARK  215  A    between atoms: _543  and  _545
REMARK  216  A    between atoms: _545  and  _546
REMARK  217  A    between atoms: _545  and  _548
REMARK  218  A    between atoms: _548  and  _549
REMARK  219  A    between atoms: _555  and  _557
REMARK  220  A    between atoms: _557  and  _558
REMARK  221  A    between atoms: _557  and  _560
REMARK  222  A    between atoms: _560  and  _561
REMARK  223  A    between atoms: _561  and  _562
REMARK  224  A    between atoms: _567  and  _569
REMARK  225  A    between atoms: _569  and  _570
REMARK  226  A    between atoms: _569  and  _572
REMARK  227  A    between atoms: _572  and  _573
REMARK  228  A    between atoms: _576  and  _578
REMARK  229  A    between atoms: _578  and  _579
REMARK  230  A    between atoms: _578  and  _581
REMARK  231  A    between atoms: _581  and  _582
REMARK  232  A    between atoms: _584  and  _586
REMARK  233  A    between atoms: _586  and  _587
REMARK  234  A    between atoms: _586  and  _589
REMARK  235  A    between atoms: _589  and  _590
REMARK  236  A    between atoms: _596  and  _598
REMARK  237  A    between atoms: _598  and  _599
REMARK  238  A    between atoms: _598  and  _601
REMARK  239  A    between atoms: _601  and  _602
REMARK  240  A    between atoms: _607  and  _608
REMARK  241  A    between atoms: _610  and  _612
REMARK  242  A    between atoms: _612  and  _613
REMARK  243  A    between atoms: _612  and  _615
REMARK  244  A    between atoms: _615  and  _616
REMARK                            x       y       z     vdW  Elec       q    Type
REMARK                         _______ _______ _______ _____ _____    ______ ____
ROOT
ATOM      1  O   HOH     1     -21.341   6.861  39.497  0.00  0.00    +0.000 OA
ENDROOT
TORSDOF 0
REMARK  Name = ../refined-set-2016/4ido/4ido_pocket.pdb
REMARK  244 active torsions:
REMARK  status: ('A' for Active; 'I' for Inactive)
REMARK    1  A    between atoms: _1  and  _3
REMARK    2  A    between atoms: _3  and  _4
REMARK    3  A    between atoms: _3  and  _6
REMARK    4  A    between atoms: _9  and  _11
REMARK    5  A    between atoms: _11  and  _12
REMARK    6  A    between atoms: _15  and  _17
REMARK    7  A    between atoms: _17  and  _18
REMARK    8  A    between atoms: _20  and  _22
REMARK    9  A    between atoms: _22  and  _23
REMARK   10  A    between atoms: _26  and  _28
REMARK   11  A    between atoms: _28  and  _29
REMARK   12  A    between atoms: _28  and  _31
REMARK   13  A    between atoms: _31  and  _32
REMARK   14  A    between atoms: _38  and  _40
REMARK   15  A    between atoms: _40  and  _41
REMARK   16  A    between atoms: _40  and  _43
REMARK   17  A    between atoms: _43  and  _44
REMARK   18  A    between atoms: _44  and  _45
REMARK   19  A    between atoms: _45  and  _46
REMARK   20  A    between atoms: _55  and  _57
REMARK   21  A    between atoms: _57  and  _58
REMARK   22  A    between atoms: _57  and  _60
REMARK   23  A    between atoms: _60  and  _61
REMARK   24  A    between atoms: _61  and  _62
REMARK   25  A    between atoms: _62  and  _63
REMARK   26  A    between atoms: _63  and  _64
REMARK   27  A    between atoms: _68  and  _70
REMARK   28  A    between atoms: _70  and  _71
REMARK   29  A    between atoms: _73  and  _75
REMARK   30  A    between atoms: _75  and  _76
REMARK   31  A    between atoms: _75  and  _78
REMARK   32  A    between atoms: _78  and  _79
REMARK   33  A    between atoms: _79  and  _80
REMARK   34  A    between atoms: _80  and  _81
REMARK   35  A    between atoms: _81  and  _82
REMARK   36  A    between atoms: _86  and  _88
REMARK   37  A    between atoms: _88  and  _89
REMARK   38  A    between atoms: _88  and  _91
REMARK   39  A    between atoms: _91  and  _92
REMARK   40  A    between atoms: _94  and  _96
REMARK   41  A    between atoms: _96  and  _97
REMARK   42  A    between atoms: _96  and  _99
REMARK   43  A    between atoms: _99  and  _100
REMARK   44  A    between atoms: _106  and  _108
REMARK   45  A    between atoms: _108  and  _109
REMARK   46  A    between atoms: _108  and  _111
REMARK   47  A    between atoms: _111  and  _112
REMARK   48  A    between atoms: _115  and  _117
REMARK   49  A    between atoms: _117  and  _118
REMARK   50  A    between atoms: _117  and  _120
REMARK   51  A    between atoms: _120  and  _121
REMARK   52  A    between atoms: _121  and  _122
REMARK   53  A    between atoms: _124  and  _126
REMARK   54  A    between atoms: _126  and  _127
REMARK   55  A    between atoms: _126  and  _129
REMARK   56  A    between atoms: _129  and  _130
REMARK   57  A    between atoms: _133  and  _135
REMARK   58  A    between atoms: _135  and  _136
REMARK   59  A    between atoms: _135  and  _138
REMARK   60  A    between atoms: _138  and  _139
REMARK   61  A    between atoms: _145  and  _147
REMARK   62  A    between atoms: _147  and  _148
REMARK   63  A    between atoms: _147  and  _150
REMARK   64  A    between atoms: _150  and  _151
REMARK   65  A    between atoms: _154  and  _156
REMARK   66  A    between atoms: _156  and  _157
REMARK   67  A    between atoms: _156  and  _159
REMARK   68  A    between atoms: _159  and  _160
REMARK   69  A    between atoms: _166  and  _168
REMARK   70  A    between atoms: _168  and  _169
REMARK   71  A    between atoms: _168  and  _171
REMARK   72  A    between atoms: _171  and  _172
REMARK   73  A    between atoms: _174  and  _176
REMARK   74  A    between atoms: _176  and  _177
REMARK   75  A    between atoms: _176  and  _179
REMARK   76  A    between atoms: _179  and  _180
REMARK   77  A    between atoms: _190  and  _192
REMARK   78  A    between atoms: _192  and  _193
REMARK   79  A    between atoms: _192  and  _195
REMARK   80  A    between atoms: _195  and  _196
REMARK   81  A    between atoms: _196  and  _197
REMARK   82  A    between atoms: _197  and  _198
REMARK   83  A    between atoms: _207  and  _209
REMARK   84  A    between atoms: _209  and  _210
REMARK   85  A    between atoms: _212  and  _214
REMARK   86  A    between atoms: _214  and  _215
REMARK   87  A    between atoms: _217  and  _219
REMARK   88  A    between atoms: _219  and  _220
REMARK   89  A    between atoms: _219  and  _222
REMARK   90  A    between atoms: _222  and  _223
REMARK   91  A    between atoms: _223  and  _224
REMARK   92  A    between atoms: _227  and  _229
REMARK   93  A    between atoms: _229  and  _230
REMARK   94  A    between atoms: _229  and  _232
REMARK   95  A    between atoms: _232  and  _233
REMARK   96  A    between atoms: _233  and  _234
REMARK   97  A    between atoms: _234  and  _235
REMARK   98  A    between atoms: _244  and  _246
REMARK   99  A    between atoms: _246  and  _247
REMARK  100  A    between atoms: _246  and  _249
REMARK  101  A    between atoms: _249  and  _250
REMARK  102  A    between atoms: _250  and  _251
REMARK  103  A    between atoms: _254  and  _256
REMARK  104  A    between atoms: _256  and  _257
REMARK  105  A    between atoms: _256  and  _259
REMARK  106  A    between atoms: _259  and  _260
REMARK  107  A    between atoms: _263  and  _265
REMARK  108  A    between atoms: _265  and  _266
REMARK  109  A    between atoms: _265  and  _268
REMARK  110  A    between atoms: _268  and  _269
REMARK  111  A    between atoms: _272  and  _274
REMARK  112  A    between atoms: _274  and  _275
REMARK  113  A    between atoms: _274  and  _277
REMARK  114  A    between atoms: _277  and  _278
REMARK  115  A    between atoms: _281  and  _283
REMARK  116  A    between atoms: _283  and  _284
REMARK  117  A    between atoms: _283  and  _286
REMARK  118  A    between atoms: _286  and  _287
REMARK  119  A    between atoms: _287  and  _288
REMARK  120  A    between atoms: _293  and  _295
REMARK  121  A    between atoms: _295  and  _296
REMARK  122  A    between atoms: _298  and  _300
REMARK  123  A    between atoms: _300  and  _301
REMARK  124  A    between atoms: _300  and  _303
REMARK  125  A    between atoms: _303  and  _304
REMARK  126  A    between atoms: _307  and  _309
REMARK  127  A    between atoms: _309  and  _310
REMARK  128  A    between atoms: _309  and  _312
REMARK  129  A    between atoms: _312  and  _313
REMARK  130  A    between atoms: _318  and  _320
REMARK  131  A    between atoms: _320  and  _321
REMARK  132  A    between atoms: _320  and  _323
REMARK  133  A    between atoms: _323  and  _324
REMARK  134  A    between atoms: _327  and  _329
REMARK  135  A    between atoms: _329  and  _330
REMARK  136  A    between atoms: _329  and  _332
REMARK  137  A    between atoms: _332  and  _333
REMARK  138  A    between atoms: _335  and  _337
REMARK  139  A    between atoms: _337  and  _338
REMARK  140  A    between atoms: _337  and  _340
REMARK  141  A    between atoms: _340  and  _341
REMARK  142  A    between atoms: _341  and  _342
REMARK  143  A    between atoms: _347  and  _349
REMARK  144  A    between atoms: _349  and  _350
REMARK  145  A    between atoms: _349  and  _352
REMARK  146  A    between atoms: _352  and  _353
REMARK  147  A    between atoms: _356  and  _358
REMARK  148  A    between atoms: _358  and  _359
REMARK  149  A    between atoms: _358  and  _361
REMARK  150  A    between atoms: _364  and  _366
REMARK  151  A    between atoms: _366  and  _367
REMARK  152  A    between atoms: _366  and  _369
REMARK  153  A    between atoms: _369  and  _370
REMARK  154  A    between atoms: _370  and  _371
REMARK  155  A    between atoms: _371  and  _372
REMARK  156  A    between atoms: _381  and  _383
REMARK  157  A    between atoms: _383  and  _384
REMARK  158  A    between atoms: _383  and  _386
REMARK  159  A    between atoms: _386  and  _387
REMARK  160  A    between atoms: _390  and  _392
REMARK  161  A    between atoms: _392  and  _393
REMARK  162  A    between atoms: _392  and  _395
REMARK  163  A    between atoms: _395  and  _396
REMARK  164  A    between atoms: _406  and  _408
REMARK  165  A    between atoms: _408  and  _409
REMARK  166  A    between atoms: _408  and  _411
REMARK  167  A    between atoms: _411  and  _412
REMARK  168  A    between atoms: _416  and  _417
REMARK  169  A    between atoms: _422  and  _424
REMARK  170  A    between atoms: _424  and  _425
REMARK  171  A    between atoms: _424  and  _427
REMARK  172  A    between atoms: _427  and  _428
REMARK  173  A    between atoms: _434  and  _435
REMARK  174  A    between atoms: _440  and  _442
REMARK  175  A    between atoms: _442  and  _443
REMARK  176  A    between atoms: _445  and  _447
REMARK  177  A    between atoms: _447  and  _448
REMARK  178  A    between atoms: _447  and  _450
REMARK  179  A    between atoms: _450  and  _451
REMARK  180  A    between atoms: _454  and  _456
REMARK  181  A    between atoms: _456  and  _457
REMARK  182  A    between atoms: _456  and  _459
REMARK  183  A    between atoms: _459  and  _460
REMARK  184  A    between atoms: _460  and  _461
REMARK  185  A    between atoms: _461  and  _462
REMARK  186  A    between atoms: _462  and  _463
REMARK  187  A    between atoms: _467  and  _469
REMARK  188  A    between atoms: _469  and  _470
REMARK  189  A    between atoms: _469  and  _472
REMARK  190  A    between atoms: _475  and  _477
REMARK  191  A    between atoms: _477  and  _478
REMARK  192  A    between atoms: _481  and  _483
REMARK  193  A    between atoms: _483  and  _484
REMARK  194  A    between atoms: _483  and  _486
REMARK  195  A    between atoms: _486  and  _487
REMARK  196  A    between atoms: _490  and  _492
REMARK  197  A    between atoms: _492  and  _493
REMARK  198  A    between atoms: _492  and  _495
REMARK  199  A    between atoms: _495  and  _496
REMARK  200  A    between atoms: _502  and  _503
REMARK  201  A    between atoms: _508  and  _510
REMARK  202  A    between atoms: _510  and  _511
REMARK  203  A    between atoms: _510  and  _513
REMARK  204  A    between atoms: _513  and  _514
REMARK  205  A    between atoms: _520  and  _522
REMARK  206  A    between atoms: _522  and  _523
REMARK  207  A    between atoms: _522  and  _525
REMARK  208  A    between atoms: _525  and  _526
REMARK  209  A    between atoms: _529  and  _531
REMARK  210  A    between atoms: _531  and  _532
REMARK  211  A    between atoms: _534  and  _536
REMARK  212  A    between atoms: _536  and  _537
REMARK  213  A    between atoms: _536  and  _539
REMARK  214  A    between atoms: _539  and  _540
REMARK  215  A    between atoms: _543  and  _545
REMARK  216  A    between atoms: _545  and  _546
REMARK  217  A    between atoms: _545  and  _548
REMARK  218  A    between atoms: _548  and  _549
REMARK  219  A    between atoms: _555  and  _557
REMARK  220  A    between atoms: _557  and  _558
REMARK  221  A    between atoms: _557  and  _560
REMARK  222  A    between atoms: _560  and  _561
REMARK  223  A    between atoms: _561  and  _562
REMARK  224  A    between atoms: _567  and  _569
REMARK  225  A    between atoms: _569  and  _570
REMARK  226  A    between atoms: _569  and  _572
REMARK  227  A    between atoms: _572  and  _573
REMARK  228  A    between atoms: _576  and  _578
REMARK  229  A    between atoms: _578  and  _579
REMARK  230  A    between atoms: _578  and  _581
REMARK  231  A    between atoms: _581  and  _582
REMARK  232  A    between atoms: _584  and  _586
REMARK  233  A    between atoms: _586  and  _587
REMARK  234  A    between atoms: _586  and  _589
REMARK  235  A    between atoms: _589  and  _590
REMARK  236  A    between atoms: _596  and  _598
REMARK  237  A    between atoms: _598  and  _599
REMARK  238  A    between atoms: _598  and  _601
REMARK  239  A    between atoms: _601  and  _602
REMARK  240  A    between atoms: _607  and  _608
REMARK  241  A    between atoms: _610  and  _612
REMARK  242  A    between atoms: _612  and  _613
REMARK  243  A    between atoms: _612  and  _615
REMARK  244  A    between atoms: _615  and  _616
REMARK                            x       y       z     vdW  Elec       q    Type
REMARK                         _______ _______ _______ _____ _____    ______ ____
ROOT
ATOM      1  O   HOH     1     -22.797   5.360  38.444  0.00  0.00    +0.000 OA
ENDROOT
TORSDOF 0
REMARK  Name = ../refined-set-2016/4ido/4ido_pocket.pdb
REMARK  244 active torsions:
REMARK  status: ('A' for Active; 'I' for Inactive)
REMARK    1  A    between atoms: _1  and  _3
REMARK    2  A    between atoms: _3  and  _4
REMARK    3  A    between atoms: _3  and  _6
REMARK    4  A    between atoms: _9  and  _11
REMARK    5  A    between atoms: _11  and  _12
REMARK    6  A    between atoms: _15  and  _17
REMARK    7  A    between atoms: _17  and  _18
REMARK    8  A    between atoms: _20  and  _22
REMARK    9  A    between atoms: _22  and  _23
REMARK   10  A    between atoms: _26  and  _28
REMARK   11  A    between atoms: _28  and  _29
REMARK   12  A    between atoms: _28  and  _31
REMARK   13  A    between atoms: _31  and  _32
REMARK   14  A    between atoms: _38  and  _40
REMARK   15  A    between atoms: _40  and  _41
REMARK   16  A    between atoms: _40  and  _43
REMARK   17  A    between atoms: _43  and  _44
REMARK   18  A    between atoms: _44  and  _45
REMARK   19  A    between atoms: _45  and  _46
REMARK   20  A    between atoms: _55  and  _57
REMARK   21  A    between atoms: _57  and  _58
REMARK   22  A    between atoms: _57  and  _60
REMARK   23  A    between atoms: _60  and  _61
REMARK   24  A    between atoms: _61  and  _62
REMARK   25  A    between atoms: _62  and  _63
REMARK   26  A    between atoms: _63  and  _64
REMARK   27  A    between atoms: _68  and  _70
REMARK   28  A    between atoms: _70  and  _71
REMARK   29  A    between atoms: _73  and  _75
REMARK   30  A    between atoms: _75  and  _76
REMARK   31  A    between atoms: _75  and  _78
REMARK   32  A    between atoms: _78  and  _79
REMARK   33  A    between atoms: _79  and  _80
REMARK   34  A    between atoms: _80  and  _81
REMARK   35  A    between atoms: _81  and  _82
REMARK   36  A    between atoms: _86  and  _88
REMARK   37  A    between atoms: _88  and  _89
REMARK   38  A    between atoms: _88  and  _91
REMARK   39  A    between atoms: _91  and  _92
REMARK   40  A    between atoms: _94  and  _96
REMARK   41  A    between atoms: _96  and  _97
REMARK   42  A    between atoms: _96  and  _99
REMARK   43  A    between atoms: _99  and  _100
REMARK   44  A    between atoms: _106  and  _108
REMARK   45  A    between atoms: _108  and  _109
REMARK   46  A    between atoms: _108  and  _111
REMARK   47  A    between atoms: _111  and  _112
REMARK   48  A    between atoms: _115  and  _117
REMARK   49  A    between atoms: _117  and  _118
REMARK   50  A    between atoms: _117  and  _120
REMARK   51  A    between atoms: _120  and  _121
REMARK   52  A    between atoms: _121  and  _122
REMARK   53  A    between atoms: _124  and  _126
REMARK   54  A    between atoms: _126  and  _127
REMARK   55  A    between atoms: _126  and  _129
REMARK   56  A    between atoms: _129  and  _130
REMARK   57  A    between atoms: _133  and  _135
REMARK   58  A    between atoms: _135  and  _136
REMARK   59  A    between atoms: _135  and  _138
REMARK   60  A    between atoms: _138  and  _139
REMARK   61  A    between atoms: _145  and  _147
REMARK   62  A    between atoms: _147  and  _148
REMARK   63  A    between atoms: _147  and  _150
REMARK   64  A    between atoms: _150  and  _151
REMARK   65  A    between atoms: _154  and  _156
REMARK   66  A    between atoms: _156  and  _157
REMARK   67  A    between atoms: _156  and  _159
REMARK   68  A    between atoms: _159  and  _160
REMARK   69  A    between atoms: _166  and  _168
REMARK   70  A    between atoms: _168  and  _169
REMARK   71  A    between atoms: _168  and  _171
REMARK   72  A    between atoms: _171  and  _172
REMARK   73  A    between atoms: _174  and  _176
REMARK   74  A    between atoms: _176  and  _177
REMARK   75  A    between atoms: _176  and  _179
REMARK   76  A    between atoms: _179  and  _180
REMARK   77  A    between atoms: _190  and  _192
REMARK   78  A    between atoms: _192  and  _193
REMARK   79  A    between atoms: _192  and  _195
REMARK   80  A    between atoms: _195  and  _196
REMARK   81  A    between atoms: _196  and  _197
REMARK   82  A    between atoms: _197  and  _198
REMARK   83  A    between atoms: _207  and  _209
REMARK   84  A    between atoms: _209  and  _210
REMARK   85  A    between atoms: _212  and  _214
REMARK   86  A    between atoms: _214  and  _215
REMARK   87  A    between atoms: _217  and  _219
REMARK   88  A    between atoms: _219  and  _220
REMARK   89  A    between atoms: _219  and  _222
REMARK   90  A    between atoms: _222  and  _223
REMARK   91  A    between atoms: _223  and  _224
REMARK   92  A    between atoms: _227  and  _229
REMARK   93  A    between atoms: _229  and  _230
REMARK   94  A    between atoms: _229  and  _232
REMARK   95  A    between atoms: _232  and  _233
REMARK   96  A    between atoms: _233  and  _234
REMARK   97  A    between atoms: _234  and  _235
REMARK   98  A    between atoms: _244  and  _246
REMARK   99  A    between atoms: _246  and  _247
REMARK  100  A    between atoms: _246  and  _249
REMARK  101  A    between atoms: _249  and  _250
REMARK  102  A    between atoms: _250  and  _251
REMARK  103  A    between atoms: _254  and  _256
REMARK  104  A    between atoms: _256  and  _257
REMARK  105  A    between atoms: _256  and  _259
REMARK  106  A    between atoms: _259  and  _260
REMARK  107  A    between atoms: _263  and  _265
REMARK  108  A    between atoms: _265  and  _266
REMARK  109  A    between atoms: _265  and  _268
REMARK  110  A    between atoms: _268  and  _269
REMARK  111  A    between atoms: _272  and  _274
REMARK  112  A    between atoms: _274  and  _275
REMARK  113  A    between atoms: _274  and  _277
REMARK  114  A    between atoms: _277  and  _278
REMARK  115  A    between atoms: _281  and  _283
REMARK  116  A    between atoms: _283  and  _284
REMARK  117  A    between atoms: _283  and  _286
REMARK  118  A    between atoms: _286  and  _287
REMARK  119  A    between atoms: _287  and  _288
REMARK  120  A    between atoms: _293  and  _295
REMARK  121  A    between atoms: _295  and  _296
REMARK  122  A    between atoms: _298  and  _300
REMARK  123  A    between atoms: _300  and  _301
REMARK  124  A    between atoms: _300  and  _303
REMARK  125  A    between atoms: _303  and  _304
REMARK  126  A    between atoms: _307  and  _309
REMARK  127  A    between atoms: _309  and  _310
REMARK  128  A    between atoms: _309  and  _312
REMARK  129  A    between atoms: _312  and  _313
REMARK  130  A    between atoms: _318  and  _320
REMARK  131  A    between atoms: _320  and  _321
REMARK  132  A    between atoms: _320  and  _323
REMARK  133  A    between atoms: _323  and  _324
REMARK  134  A    between atoms: _327  and  _329
REMARK  135  A    between atoms: _329  and  _330
REMARK  136  A    between atoms: _329  and  _332
REMARK  137  A    between atoms: _332  and  _333
REMARK  138  A    between atoms: _335  and  _337
REMARK  139  A    between atoms: _337  and  _338
REMARK  140  A    between atoms: _337  and  _340
REMARK  141  A    between atoms: _340  and  _341
REMARK  142  A    between atoms: _341  and  _342
REMARK  143  A    between atoms: _347  and  _349
REMARK  144  A    between atoms: _349  and  _350
REMARK  145  A    between atoms: _349  and  _352
REMARK  146  A    between atoms: _352  and  _353
REMARK  147  A    between atoms: _356  and  _358
REMARK  148  A    between atoms: _358  and  _359
REMARK  149  A    between atoms: _358  and  _361
REMARK  150  A    between atoms: _364  and  _366
REMARK  151  A    between atoms: _366  and  _367
REMARK  152  A    between atoms: _366  and  _369
REMARK  153  A    between atoms: _369  and  _370
REMARK  154  A    between atoms: _370  and  _371
REMARK  155  A    between atoms: _371  and  _372
REMARK  156  A    between atoms: _381  and  _383
REMARK  157  A    between atoms: _383  and  _384
REMARK  158  A    between atoms: _383  and  _386
REMARK  159  A    between atoms: _386  and  _387
REMARK  160  A    between atoms: _390  and  _392
REMARK  161  A    between atoms: _392  and  _393
REMARK  162  A    between atoms: _392  and  _395
REMARK  163  A    between atoms: _395  and  _396
REMARK  164  A    between atoms: _406  and  _408
REMARK  165  A    between atoms: _408  and  _409
REMARK  166  A    between atoms: _408  and  _411
REMARK  167  A    between atoms: _411  and  _412
REMARK  168  A    between atoms: _416  and  _417
REMARK  169  A    between atoms: _422  and  _424
REMARK  170  A    between atoms: _424  and  _425
REMARK  171  A    between atoms: _424  and  _427
REMARK  172  A    between atoms: _427  and  _428
REMARK  173  A    between atoms: _434  and  _435
REMARK  174  A    between atoms: _440  and  _442
REMARK  175  A    between atoms: _442  and  _443
REMARK  176  A    between atoms: _445  and  _447
REMARK  177  A    between atoms: _447  and  _448
REMARK  178  A    between atoms: _447  and  _450
REMARK  179  A    between atoms: _450  and  _451
REMARK  180  A    between atoms: _454  and  _456
REMARK  181  A    between atoms: _456  and  _457
REMARK  182  A    between atoms: _456  and  _459
REMARK  183  A    between atoms: _459  and  _460
REMARK  184  A    between atoms: _460  and  _461
REMARK  185  A    between atoms: _461  and  _462
REMARK  186  A    between atoms: _462  and  _463
REMARK  187  A    between atoms: _467  and  _469
REMARK  188  A    between atoms: _469  and  _470
REMARK  189  A    between atoms: _469  and  _472
REMARK  190  A    between atoms: _475  and  _477
REMARK  191  A    between atoms: _477  and  _478
REMARK  192  A    between atoms: _481  and  _483
REMARK  193  A    between atoms: _483  and  _484
REMARK  194  A    between atoms: _483  and  _486
REMARK  195  A    between atoms: _486  and  _487
REMARK  196  A    between atoms: _490  and  _492
REMARK  197  A    between atoms: _492  and  _493
REMARK  198  A    between atoms: _492  and  _495
REMARK  199  A    between atoms: _495  and  _496
REMARK  200  A    between atoms: _502  and  _503
REMARK  201  A    between atoms: _508  and  _510
REMARK  202  A    between atoms: _510  and  _511
REMARK  203  A    between atoms: _510  and  _513
REMARK  204  A    between atoms: _513  and  _514
REMARK  205  A    between atoms: _520  and  _522
REMARK  206  A    between atoms: _522  and  _523
REMARK  207  A    between atoms: _522  and  _525
REMARK  208  A    between atoms: _525  and  _526
REMARK  209  A    between atoms: _529  and  _531
REMARK  210  A    between atoms: _531  and  _532
REMARK  211  A    between atoms: _534  and  _536
REMARK  212  A    between atoms: _536  and  _537
REMARK  213  A    between atoms: _536  and  _539
REMARK  214  A    between atoms: _539  and  _540
REMARK  215  A    between atoms: _543  and  _545
REMARK  216  A    between atoms: _545  and  _546
REMARK  217  A    between atoms: _545  and  _548
REMARK  218  A    between atoms: _548  and  _549
REMARK  219  A    between atoms: _555  and  _557
REMARK  220  A    between atoms: _557  and  _558
REMARK  221  A    between atoms: _557  and  _560
REMARK  222  A    between atoms: _560  and  _561
REMARK  223  A    between atoms: _561  and  _562
REMARK  224  A    between atoms: _567  and  _569
REMARK  225  A    between atoms: _569  and  _570
REMARK  226  A    between atoms: _569  and  _572
REMARK  227  A    between atoms: _572  and  _573
REMARK  228  A    between atoms: _576  and  _578
REMARK  229  A    between atoms: _578  and  _579
REMARK  230  A    between atoms: _578  and  _581
REMARK  231  A    between atoms: _581  and  _582
REMARK  232  A    between atoms: _584  and  _586
REMARK  233  A    between atoms: _586  and  _587
REMARK  234  A    between atoms: _586  and  _589
REMARK  235  A    between atoms: _589  and  _590
REMARK  236  A    between atoms: _596  and  _598
REMARK  237  A    between atoms: _598  and  _599
REMARK  238  A    between atoms: _598  and  _601
REMARK  239  A    between atoms: _601  and  _602
REMARK  240  A    between atoms: _607  and  _608
REMARK  241  A    between atoms: _610  and  _612
REMARK  242  A    between atoms: _612  and  _613
REMARK  243  A    between atoms: _612  and  _615
REMARK  244  A    between atoms: _615  and  _616
REMARK                            x       y       z     vdW  Elec       q    Type
REMARK                         _______ _______ _______ _____ _____    ______ ____
ROOT
ATOM      1  O   HOH     1     -30.616  -7.277  36.246  0.00  0.00    +0.000 OA
ENDROOT
TORSDOF 0
REMARK  Name = ../refined-set-2016/4ido/4ido_pocket.pdb
REMARK  244 active torsions:
REMARK  status: ('A' for Active; 'I' for Inactive)
REMARK    1  A    between atoms: _1  and  _3
REMARK    2  A    between atoms: _3  and  _4
REMARK    3  A    between atoms: _3  and  _6
REMARK    4  A    between atoms: _9  and  _11
REMARK    5  A    between atoms: _11  and  _12
REMARK    6  A    between atoms: _15  and  _17
REMARK    7  A    between atoms: _17  and  _18
REMARK    8  A    between atoms: _20  and  _22
REMARK    9  A    between atoms: _22  and  _23
REMARK   10  A    between atoms: _26  and  _28
REMARK   11  A    between atoms: _28  and  _29
REMARK   12  A    between atoms: _28  and  _31
REMARK   13  A    between atoms: _31  and  _32
REMARK   14  A    between atoms: _38  and  _40
REMARK   15  A    between atoms: _40  and  _41
REMARK   16  A    between atoms: _40  and  _43
REMARK   17  A    between atoms: _43  and  _44
REMARK   18  A    between atoms: _44  and  _45
REMARK   19  A    between atoms: _45  and  _46
REMARK   20  A    between atoms: _55  and  _57
REMARK   21  A    between atoms: _57  and  _58
REMARK   22  A    between atoms: _57  and  _60
REMARK   23  A    between atoms: _60  and  _61
REMARK   24  A    between atoms: _61  and  _62
REMARK   25  A    between atoms: _62  and  _63
REMARK   26  A    between atoms: _63  and  _64
REMARK   27  A    between atoms: _68  and  _70
REMARK   28  A    between atoms: _70  and  _71
REMARK   29  A    between atoms: _73  and  _75
REMARK   30  A    between atoms: _75  and  _76
REMARK   31  A    between atoms: _75  and  _78
REMARK   32  A    between atoms: _78  and  _79
REMARK   33  A    between atoms: _79  and  _80
REMARK   34  A    between atoms: _80  and  _81
REMARK   35  A    between atoms: _81  and  _82
REMARK   36  A    between atoms: _86  and  _88
REMARK   37  A    between atoms: _88  and  _89
REMARK   38  A    between atoms: _88  and  _91
REMARK   39  A    between atoms: _91  and  _92
REMARK   40  A    between atoms: _94  and  _96
REMARK   41  A    between atoms: _96  and  _97
REMARK   42  A    between atoms: _96  and  _99
REMARK   43  A    between atoms: _99  and  _100
REMARK   44  A    between atoms: _106  and  _108
REMARK   45  A    between atoms: _108  and  _109
REMARK   46  A    between atoms: _108  and  _111
REMARK   47  A    between atoms: _111  and  _112
REMARK   48  A    between atoms: _115  and  _117
REMARK   49  A    between atoms: _117  and  _118
REMARK   50  A    between atoms: _117  and  _120
REMARK   51  A    between atoms: _120  and  _121
REMARK   52  A    between atoms: _121  and  _122
REMARK   53  A    between atoms: _124  and  _126
REMARK   54  A    between atoms: _126  and  _127
REMARK   55  A    between atoms: _126  and  _129
REMARK   56  A    between atoms: _129  and  _130
REMARK   57  A    between atoms: _133  and  _135
REMARK   58  A    between atoms: _135  and  _136
REMARK   59  A    between atoms: _135  and  _138
REMARK   60  A    between atoms: _138  and  _139
REMARK   61  A    between atoms: _145  and  _147
REMARK   62  A    between atoms: _147  and  _148
REMARK   63  A    between atoms: _147  and  _150
REMARK   64  A    between atoms: _150  and  _151
REMARK   65  A    between atoms: _154  and  _156
REMARK   66  A    between atoms: _156  and  _157
REMARK   67  A    between atoms: _156  and  _159
REMARK   68  A    between atoms: _159  and  _160
REMARK   69  A    between atoms: _166  and  _168
REMARK   70  A    between atoms: _168  and  _169
REMARK   71  A    between atoms: _168  and  _171
REMARK   72  A    between atoms: _171  and  _172
REMARK   73  A    between atoms: _174  and  _176
REMARK   74  A    between atoms: _176  and  _177
REMARK   75  A    between atoms: _176  and  _179
REMARK   76  A    between atoms: _179  and  _180
REMARK   77  A    between atoms: _190  and  _192
REMARK   78  A    between atoms: _192  and  _193
REMARK   79  A    between atoms: _192  and  _195
REMARK   80  A    between atoms: _195  and  _196
REMARK   81  A    between atoms: _196  and  _197
REMARK   82  A    between atoms: _197  and  _198
REMARK   83  A    between atoms: _207  and  _209
REMARK   84  A    between atoms: _209  and  _210
REMARK   85  A    between atoms: _212  and  _214
REMARK   86  A    between atoms: _214  and  _215
REMARK   87  A    between atoms: _217  and  _219
REMARK   88  A    between atoms: _219  and  _220
REMARK   89  A    between atoms: _219  and  _222
REMARK   90  A    between atoms: _222  and  _223
REMARK   91  A    between atoms: _223  and  _224
REMARK   92  A    between atoms: _227  and  _229
REMARK   93  A    between atoms: _229  and  _230
REMARK   94  A    between atoms: _229  and  _232
REMARK   95  A    between atoms: _232  and  _233
REMARK   96  A    between atoms: _233  and  _234
REMARK   97  A    between atoms: _234  and  _235
REMARK   98  A    between atoms: _244  and  _246
REMARK   99  A    between atoms: _246  and  _247
REMARK  100  A    between atoms: _246  and  _249
REMARK  101  A    between atoms: _249  and  _250
REMARK  102  A    between atoms: _250  and  _251
REMARK  103  A    between atoms: _254  and  _256
REMARK  104  A    between atoms: _256  and  _257
REMARK  105  A    between atoms: _256  and  _259
REMARK  106  A    between atoms: _259  and  _260
REMARK  107  A    between atoms: _263  and  _265
REMARK  108  A    between atoms: _265  and  _266
REMARK  109  A    between atoms: _265  and  _268
REMARK  110  A    between atoms: _268  and  _269
REMARK  111  A    between atoms: _272  and  _274
REMARK  112  A    between atoms: _274  and  _275
REMARK  113  A    between atoms: _274  and  _277
REMARK  114  A    between atoms: _277  and  _278
REMARK  115  A    between atoms: _281  and  _283
REMARK  116  A    between atoms: _283  and  _284
REMARK  117  A    between atoms: _283  and  _286
REMARK  118  A    between atoms: _286  and  _287
REMARK  119  A    between atoms: _287  and  _288
REMARK  120  A    between atoms: _293  and  _295
REMARK  121  A    between atoms: _295  and  _296
REMARK  122  A    between atoms: _298  and  _300
REMARK  123  A    between atoms: _300  and  _301
REMARK  124  A    between atoms: _300  and  _303
REMARK  125  A    between atoms: _303  and  _304
REMARK  126  A    between atoms: _307  and  _309
REMARK  127  A    between atoms: _309  and  _310
REMARK  128  A    between atoms: _309  and  _312
REMARK  129  A    between atoms: _312  and  _313
REMARK  130  A    between atoms: _318  and  _320
REMARK  131  A    between atoms: _320  and  _321
REMARK  132  A    between atoms: _320  and  _323
REMARK  133  A    between atoms: _323  and  _324
REMARK  134  A    between atoms: _327  and  _329
REMARK  135  A    between atoms: _329  and  _330
REMARK  136  A    between atoms: _329  and  _332
REMARK  137  A    between atoms: _332  and  _333
REMARK  138  A    between atoms: _335  and  _337
REMARK  139  A    between atoms: _337  and  _338
REMARK  140  A    between atoms: _337  and  _340
REMARK  141  A    between atoms: _340  and  _341
REMARK  142  A    between atoms: _341  and  _342
REMARK  143  A    between atoms: _347  and  _349
REMARK  144  A    between atoms: _349  and  _350
REMARK  145  A    between atoms: _349  and  _352
REMARK  146  A    between atoms: _352  and  _353
REMARK  147  A    between atoms: _356  and  _358
REMARK  148  A    between atoms: _358  and  _359
REMARK  149  A    between atoms: _358  and  _361
REMARK  150  A    between atoms: _364  and  _366
REMARK  151  A    between atoms: _366  and  _367
REMARK  152  A    between atoms: _366  and  _369
REMARK  153  A    between atoms: _369  and  _370
REMARK  154  A    between atoms: _370  and  _371
REMARK  155  A    between atoms: _371  and  _372
REMARK  156  A    between atoms: _381  and  _383
REMARK  157  A    between atoms: _383  and  _384
REMARK  158  A    between atoms: _383  and  _386
REMARK  159  A    between atoms: _386  and  _387
REMARK  160  A    between atoms: _390  and  _392
REMARK  161  A    between atoms: _392  and  _393
REMARK  162  A    between atoms: _392  and  _395
REMARK  163  A    between atoms: _395  and  _396
REMARK  164  A    between atoms: _406  and  _408
REMARK  165  A    between atoms: _408  and  _409
REMARK  166  A    between atoms: _408  and  _411
REMARK  167  A    between atoms: _411  and  _412
REMARK  168  A    between atoms: _416  and  _417
REMARK  169  A    between atoms: _422  and  _424
REMARK  170  A    between atoms: _424  and  _425
REMARK  171  A    between atoms: _424  and  _427
REMARK  172  A    between atoms: _427  and  _428
REMARK  173  A    between atoms: _434  and  _435
REMARK  174  A    between atoms: _440  and  _442
REMARK  175  A    between atoms: _442  and  _443
REMARK  176  A    between atoms: _445  and  _447
REMARK  177  A    between atoms: _447  and  _448
REMARK  178  A    between atoms: _447  and  _450
REMARK  179  A    between atoms: _450  and  _451
REMARK  180  A    between atoms: _454  and  _456
REMARK  181  A    between atoms: _456  and  _457
REMARK  182  A    between atoms: _456  and  _459
REMARK  183  A    between atoms: _459  and  _460
REMARK  184  A    between atoms: _460  and  _461
REMARK  185  A    between atoms: _461  and  _462
REMARK  186  A    between atoms: _462  and  _463
REMARK  187  A    between atoms: _467  and  _469
REMARK  188  A    between atoms: _469  and  _470
REMARK  189  A    between atoms: _469  and  _472
REMARK  190  A    between atoms: _475  and  _477
REMARK  191  A    between atoms: _477  and  _478
REMARK  192  A    between atoms: _481  and  _483
REMARK  193  A    between atoms: _483  and  _484
REMARK  194  A    between atoms: _483  and  _486
REMARK  195  A    between atoms: _486  and  _487
REMARK  196  A    between atoms: _490  and  _492
REMARK  197  A    between atoms: _492  and  _493
REMARK  198  A    between atoms: _492  and  _495
REMARK  199  A    between atoms: _495  and  _496
REMARK  200  A    between atoms: _502  and  _503
REMARK  201  A    between atoms: _508  and  _510
REMARK  202  A    between atoms: _510  and  _511
REMARK  203  A    between atoms: _510  and  _513
REMARK  204  A    between atoms: _513  and  _514
REMARK  205  A    between atoms: _520  and  _522
REMARK  206  A    between atoms: _522  and  _523
REMARK  207  A    between atoms: _522  and  _525
REMARK  208  A    between atoms: _525  and  _526
REMARK  209  A    between atoms: _529  and  _531
REMARK  210  A    between atoms: _531  and  _532
REMARK  211  A    between atoms: _534  and  _536
REMARK  212  A    between atoms: _536  and  _537
REMARK  213  A    between atoms: _536  and  _539
REMARK  214  A    between atoms: _539  and  _540
REMARK  215  A    between atoms: _543  and  _545
REMARK  216  A    between atoms: _545  and  _546
REMARK  217  A    between atoms: _545  and  _548
REMARK  218  A    between atoms: _548  and  _549
REMARK  219  A    between atoms: _555  and  _557
REMARK  220  A    between atoms: _557  and  _558
REMARK  221  A    between atoms: _557  and  _560
REMARK  222  A    between atoms: _560  and  _561
REMARK  223  A    between atoms: _561  and  _562
REMARK  224  A    between atoms: _567  and  _569
REMARK  225  A    between atoms: _569  and  _570
REMARK  226  A    between atoms: _569  and  _572
REMARK  227  A    between atoms: _572  and  _573
REMARK  228  A    between atoms: _576  and  _578
REMARK  229  A    between atoms: _578  and  _579
REMARK  230  A    between atoms: _578  and  _581
REMARK  231  A    between atoms: _581  and  _582
REMARK  232  A    between atoms: _584  and  _586
REMARK  233  A    between atoms: _586  and  _587
REMARK  234  A    between atoms: _586  and  _589
REMARK  235  A    between atoms: _589  and  _590
REMARK  236  A    between atoms: _596  and  _598
REMARK  237  A    between atoms: _598  and  _599
REMARK  238  A    between atoms: _598  and  _601
REMARK  239  A    between atoms: _601  and  _602
REMARK  240  A    between atoms: _607  and  _608
REMARK  241  A    between atoms: _610  and  _612
REMARK  242  A    between atoms: _612  and  _613
REMARK  243  A    between atoms: _612  and  _615
REMARK  244  A    between atoms: _615  and  _616
REMARK                            x       y       z     vdW  Elec       q    Type
REMARK                         _______ _______ _______ _____ _____    ______ ____
ROOT
ATOM      1  O   HOH     1     -20.743  -0.170  44.842  0.00  0.00    +0.000 OA
ENDROOT
TORSDOF 0
REMARK  Name = ../refined-set-2016/4ido/4ido_pocket.pdb
REMARK  244 active torsions:
REMARK  status: ('A' for Active; 'I' for Inactive)
REMARK    1  A    between atoms: _1  and  _3
REMARK    2  A    between atoms: _3  and  _4
REMARK    3  A    between atoms: _3  and  _6
REMARK    4  A    between atoms: _9  and  _11
REMARK    5  A    between atoms: _11  and  _12
REMARK    6  A    between atoms: _15  and  _17
REMARK    7  A    between atoms: _17  and  _18
REMARK    8  A    between atoms: _20  and  _22
REMARK    9  A    between atoms: _22  and  _23
REMARK   10  A    between atoms: _26  and  _28
REMARK   11  A    between atoms: _28  and  _29
REMARK   12  A    between atoms: _28  and  _31
REMARK   13  A    between atoms: _31  and  _32
REMARK   14  A    between atoms: _38  and  _40
REMARK   15  A    between atoms: _40  and  _41
REMARK   16  A    between atoms: _40  and  _43
REMARK   17  A    between atoms: _43  and  _44
REMARK   18  A    between atoms: _44  and  _45
REMARK   19  A    between atoms: _45  and  _46
REMARK   20  A    between atoms: _55  and  _57
REMARK   21  A    between atoms: _57  and  _58
REMARK   22  A    between atoms: _57  and  _60
REMARK   23  A    between atoms: _60  and  _61
REMARK   24  A    between atoms: _61  and  _62
REMARK   25  A    between atoms: _62  and  _63
REMARK   26  A    between atoms: _63  and  _64
REMARK   27  A    between atoms: _68  and  _70
REMARK   28  A    between atoms: _70  and  _71
REMARK   29  A    between atoms: _73  and  _75
REMARK   30  A    between atoms: _75  and  _76
REMARK   31  A    between atoms: _75  and  _78
REMARK   32  A    between atoms: _78  and  _79
REMARK   33  A    between atoms: _79  and  _80
REMARK   34  A    between atoms: _80  and  _81
REMARK   35  A    between atoms: _81  and  _82
REMARK   36  A    between atoms: _86  and  _88
REMARK   37  A    between atoms: _88  and  _89
REMARK   38  A    between atoms: _88  and  _91
REMARK   39  A    between atoms: _91  and  _92
REMARK   40  A    between atoms: _94  and  _96
REMARK   41  A    between atoms: _96  and  _97
REMARK   42  A    between atoms: _96  and  _99
REMARK   43  A    between atoms: _99  and  _100
REMARK   44  A    between atoms: _106  and  _108
REMARK   45  A    between atoms: _108  and  _109
REMARK   46  A    between atoms: _108  and  _111
REMARK   47  A    between atoms: _111  and  _112
REMARK   48  A    between atoms: _115  and  _117
REMARK   49  A    between atoms: _117  and  _118
REMARK   50  A    between atoms: _117  and  _120
REMARK   51  A    between atoms: _120  and  _121
REMARK   52  A    between atoms: _121  and  _122
REMARK   53  A    between atoms: _124  and  _126
REMARK   54  A    between atoms: _126  and  _127
REMARK   55  A    between atoms: _126  and  _129
REMARK   56  A    between atoms: _129  and  _130
REMARK   57  A    between atoms: _133  and  _135
REMARK   58  A    between atoms: _135  and  _136
REMARK   59  A    between atoms: _135  and  _138
REMARK   60  A    between atoms: _138  and  _139
REMARK   61  A    between atoms: _145  and  _147
REMARK   62  A    between atoms: _147  and  _148
REMARK   63  A    between atoms: _147  and  _150
REMARK   64  A    between atoms: _150  and  _151
REMARK   65  A    between atoms: _154  and  _156
REMARK   66  A    between atoms: _156  and  _157
REMARK   67  A    between atoms: _156  and  _159
REMARK   68  A    between atoms: _159  and  _160
REMARK   69  A    between atoms: _166  and  _168
REMARK   70  A    between atoms: _168  and  _169
REMARK   71  A    between atoms: _168  and  _171
REMARK   72  A    between atoms: _171  and  _172
REMARK   73  A    between atoms: _174  and  _176
REMARK   74  A    between atoms: _176  and  _177
REMARK   75  A    between atoms: _176  and  _179
REMARK   76  A    between atoms: _179  and  _180
REMARK   77  A    between atoms: _190  and  _192
REMARK   78  A    between atoms: _192  and  _193
REMARK   79  A    between atoms: _192  and  _195
REMARK   80  A    between atoms: _195  and  _196
REMARK   81  A    between atoms: _196  and  _197
REMARK   82  A    between atoms: _197  and  _198
REMARK   83  A    between atoms: _207  and  _209
REMARK   84  A    between atoms: _209  and  _210
REMARK   85  A    between atoms: _212  and  _214
REMARK   86  A    between atoms: _214  and  _215
REMARK   87  A    between atoms: _217  and  _219
REMARK   88  A    between atoms: _219  and  _220
REMARK   89  A    between atoms: _219  and  _222
REMARK   90  A    between atoms: _222  and  _223
REMARK   91  A    between atoms: _223  and  _224
REMARK   92  A    between atoms: _227  and  _229
REMARK   93  A    between atoms: _229  and  _230
REMARK   94  A    between atoms: _229  and  _232
REMARK   95  A    between atoms: _232  and  _233
REMARK   96  A    between atoms: _233  and  _234
REMARK   97  A    between atoms: _234  and  _235
REMARK   98  A    between atoms: _244  and  _246
REMARK   99  A    between atoms: _246  and  _247
REMARK  100  A    between atoms: _246  and  _249
REMARK  101  A    between atoms: _249  and  _250
REMARK  102  A    between atoms: _250  and  _251
REMARK  103  A    between atoms: _254  and  _256
REMARK  104  A    between atoms: _256  and  _257
REMARK  105  A    between atoms: _256  and  _259
REMARK  106  A    between atoms: _259  and  _260
REMARK  107  A    between atoms: _263  and  _265
REMARK  108  A    between atoms: _265  and  _266
REMARK  109  A    between atoms: _265  and  _268
REMARK  110  A    between atoms: _268  and  _269
REMARK  111  A    between atoms: _272  and  _274
REMARK  112  A    between atoms: _274  and  _275
REMARK  113  A    between atoms: _274  and  _277
REMARK  114  A    between atoms: _277  and  _278
REMARK  115  A    between atoms: _281  and  _283
REMARK  116  A    between atoms: _283  and  _284
REMARK  117  A    between atoms: _283  and  _286
REMARK  118  A    between atoms: _286  and  _287
REMARK  119  A    between atoms: _287  and  _288
REMARK  120  A    between atoms: _293  and  _295
REMARK  121  A    between atoms: _295  and  _296
REMARK  122  A    between atoms: _298  and  _300
REMARK  123  A    between atoms: _300  and  _301
REMARK  124  A    between atoms: _300  and  _303
REMARK  125  A    between atoms: _303  and  _304
REMARK  126  A    between atoms: _307  and  _309
REMARK  127  A    between atoms: _309  and  _310
REMARK  128  A    between atoms: _309  and  _312
REMARK  129  A    between atoms: _312  and  _313
REMARK  130  A    between atoms: _318  and  _320
REMARK  131  A    between atoms: _320  and  _321
REMARK  132  A    between atoms: _320  and  _323
REMARK  133  A    between atoms: _323  and  _324
REMARK  134  A    between atoms: _327  and  _329
REMARK  135  A    between atoms: _329  and  _330
REMARK  136  A    between atoms: _329  and  _332
REMARK  137  A    between atoms: _332  and  _333
REMARK  138  A    between atoms: _335  and  _337
REMARK  139  A    between atoms: _337  and  _338
REMARK  140  A    between atoms: _337  and  _340
REMARK  141  A    between atoms: _340  and  _341
REMARK  142  A    between atoms: _341  and  _342
REMARK  143  A    between atoms: _347  and  _349
REMARK  144  A    between atoms: _349  and  _350
REMARK  145  A    between atoms: _349  and  _352
REMARK  146  A    between atoms: _352  and  _353
REMARK  147  A    between atoms: _356  and  _358
REMARK  148  A    between atoms: _358  and  _359
REMARK  149  A    between atoms: _358  and  _361
REMARK  150  A    between atoms: _364  and  _366
REMARK  151  A    between atoms: _366  and  _367
REMARK  152  A    between atoms: _366  and  _369
REMARK  153  A    between atoms: _369  and  _370
REMARK  154  A    between atoms: _370  and  _371
REMARK  155  A    between atoms: _371  and  _372
REMARK  156  A    between atoms: _381  and  _383
REMARK  157  A    between atoms: _383  and  _384
REMARK  158  A    between atoms: _383  and  _386
REMARK  159  A    between atoms: _386  and  _387
REMARK  160  A    between atoms: _390  and  _392
REMARK  161  A    between atoms: _392  and  _393
REMARK  162  A    between atoms: _392  and  _395
REMARK  163  A    between atoms: _395  and  _396
REMARK  164  A    between atoms: _406  and  _408
REMARK  165  A    between atoms: _408  and  _409
REMARK  166  A    between atoms: _408  and  _411
REMARK  167  A    between atoms: _411  and  _412
REMARK  168  A    between atoms: _416  and  _417
REMARK  169  A    between atoms: _422  and  _424
REMARK  170  A    between atoms: _424  and  _425
REMARK  171  A    between atoms: _424  and  _427
REMARK  172  A    between atoms: _427  and  _428
REMARK  173  A    between atoms: _434  and  _435
REMARK  174  A    between atoms: _440  and  _442
REMARK  175  A    between atoms: _442  and  _443
REMARK  176  A    between atoms: _445  and  _447
REMARK  177  A    between atoms: _447  and  _448
REMARK  178  A    between atoms: _447  and  _450
REMARK  179  A    between atoms: _450  and  _451
REMARK  180  A    between atoms: _454  and  _456
REMARK  181  A    between atoms: _456  and  _457
REMARK  182  A    between atoms: _456  and  _459
REMARK  183  A    between atoms: _459  and  _460
REMARK  184  A    between atoms: _460  and  _461
REMARK  185  A    between atoms: _461  and  _462
REMARK  186  A    between atoms: _462  and  _463
REMARK  187  A    between atoms: _467  and  _469
REMARK  188  A    between atoms: _469  and  _470
REMARK  189  A    between atoms: _469  and  _472
REMARK  190  A    between atoms: _475  and  _477
REMARK  191  A    between atoms: _477  and  _478
REMARK  192  A    between atoms: _481  and  _483
REMARK  193  A    between atoms: _483  and  _484
REMARK  194  A    between atoms: _483  and  _486
REMARK  195  A    between atoms: _486  and  _487
REMARK  196  A    between atoms: _490  and  _492
REMARK  197  A    between atoms: _492  and  _493
REMARK  198  A    between atoms: _492  and  _495
REMARK  199  A    between atoms: _495  and  _496
REMARK  200  A    between atoms: _502  and  _503
REMARK  201  A    between atoms: _508  and  _510
REMARK  202  A    between atoms: _510  and  _511
REMARK  203  A    between atoms: _510  and  _513
REMARK  204  A    between atoms: _513  and  _514
REMARK  205  A    between atoms: _520  and  _522
REMARK  206  A    between atoms: _522  and  _523
REMARK  207  A    between atoms: _522  and  _525
REMARK  208  A    between atoms: _525  and  _526
REMARK  209  A    between atoms: _529  and  _531
REMARK  210  A    between atoms: _531  and  _532
REMARK  211  A    between atoms: _534  and  _536
REMARK  212  A    between atoms: _536  and  _537
REMARK  213  A    between atoms: _536  and  _539
REMARK  214  A    between atoms: _539  and  _540
REMARK  215  A    between atoms: _543  and  _545
REMARK  216  A    between atoms: _545  and  _546
REMARK  217  A    between atoms: _545  and  _548
REMARK  218  A    between atoms: _548  and  _549
REMARK  219  A    between atoms: _555  and  _557
REMARK  220  A    between atoms: _557  and  _558
REMARK  221  A    between atoms: _557  and  _560
REMARK  222  A    between atoms: _560  and  _561
REMARK  223  A    between atoms: _561  and  _562
REMARK  224  A    between atoms: _567  and  _569
REMARK  225  A    between atoms: _569  and  _570
REMARK  226  A    between atoms: _569  and  _572
REMARK  227  A    between atoms: _572  and  _573
REMARK  228  A    between atoms: _576  and  _578
REMARK  229  A    between atoms: _578  and  _579
REMARK  230  A    between atoms: _578  and  _581
REMARK  231  A    between atoms: _581  and  _582
REMARK  232  A    between atoms: _584  and  _586
REMARK  233  A    between atoms: _586  and  _587
REMARK  234  A    between atoms: _586  and  _589
REMARK  235  A    between atoms: _589  and  _590
REMARK  236  A    between atoms: _596  and  _598
REMARK  237  A    between atoms: _598  and  _599
REMARK  238  A    between atoms: _598  and  _601
REMARK  239  A    between atoms: _601  and  _602
REMARK  240  A    between atoms: _607  and  _608
REMARK  241  A    between atoms: _610  and  _612
REMARK  242  A    between atoms: _612  and  _613
REMARK  243  A    between atoms: _612  and  _615
REMARK  244  A    between atoms: _615  and  _616
REMARK                            x       y       z     vdW  Elec       q    Type
REMARK                         _______ _______ _______ _____ _____    ______ ____
ROOT
ATOM      1  O   HOH     1     -27.657   0.209  32.817  0.00  0.00    +0.000 OA
ENDROOT
TORSDOF 0
REMARK  Name = ../refined-set-2016/4ido/4ido_pocket.pdb
REMARK  244 active torsions:
REMARK  status: ('A' for Active; 'I' for Inactive)
REMARK    1  A    between atoms: _1  and  _3
REMARK    2  A    between atoms: _3  and  _4
REMARK    3  A    between atoms: _3  and  _6
REMARK    4  A    between atoms: _9  and  _11
REMARK    5  A    between atoms: _11  and  _12
REMARK    6  A    between atoms: _15  and  _17
REMARK    7  A    between atoms: _17  and  _18
REMARK    8  A    between atoms: _20  and  _22
REMARK    9  A    between atoms: _22  and  _23
REMARK   10  A    between atoms: _26  and  _28
REMARK   11  A    between atoms: _28  and  _29
REMARK   12  A    between atoms: _28  and  _31
REMARK   13  A    between atoms: _31  and  _32
REMARK   14  A    between atoms: _38  and  _40
REMARK   15  A    between atoms: _40  and  _41
REMARK   16  A    between atoms: _40  and  _43
REMARK   17  A    between atoms: _43  and  _44
REMARK   18  A    between atoms: _44  and  _45
REMARK   19  A    between atoms: _45  and  _46
REMARK   20  A    between atoms: _55  and  _57
REMARK   21  A    between atoms: _57  and  _58
REMARK   22  A    between atoms: _57  and  _60
REMARK   23  A    between atoms: _60  and  _61
REMARK   24  A    between atoms: _61  and  _62
REMARK   25  A    between atoms: _62  and  _63
REMARK   26  A    between atoms: _63  and  _64
REMARK   27  A    between atoms: _68  and  _70
REMARK   28  A    between atoms: _70  and  _71
REMARK   29  A    between atoms: _73  and  _75
REMARK   30  A    between atoms: _75  and  _76
REMARK   31  A    between atoms: _75  and  _78
REMARK   32  A    between atoms: _78  and  _79
REMARK   33  A    between atoms: _79  and  _80
REMARK   34  A    between atoms: _80  and  _81
REMARK   35  A    between atoms: _81  and  _82
REMARK   36  A    between atoms: _86  and  _88
REMARK   37  A    between atoms: _88  and  _89
REMARK   38  A    between atoms: _88  and  _91
REMARK   39  A    between atoms: _91  and  _92
REMARK   40  A    between atoms: _94  and  _96
REMARK   41  A    between atoms: _96  and  _97
REMARK   42  A    between atoms: _96  and  _99
REMARK   43  A    between atoms: _99  and  _100
REMARK   44  A    between atoms: _106  and  _108
REMARK   45  A    between atoms: _108  and  _109
REMARK   46  A    between atoms: _108  and  _111
REMARK   47  A    between atoms: _111  and  _112
REMARK   48  A    between atoms: _115  and  _117
REMARK   49  A    between atoms: _117  and  _118
REMARK   50  A    between atoms: _117  and  _120
REMARK   51  A    between atoms: _120  and  _121
REMARK   52  A    between atoms: _121  and  _122
REMARK   53  A    between atoms: _124  and  _126
REMARK   54  A    between atoms: _126  and  _127
REMARK   55  A    between atoms: _126  and  _129
REMARK   56  A    between atoms: _129  and  _130
REMARK   57  A    between atoms: _133  and  _135
REMARK   58  A    between atoms: _135  and  _136
REMARK   59  A    between atoms: _135  and  _138
REMARK   60  A    between atoms: _138  and  _139
REMARK   61  A    between atoms: _145  and  _147
REMARK   62  A    between atoms: _147  and  _148
REMARK   63  A    between atoms: _147  and  _150
REMARK   64  A    between atoms: _150  and  _151
REMARK   65  A    between atoms: _154  and  _156
REMARK   66  A    between atoms: _156  and  _157
REMARK   67  A    between atoms: _156  and  _159
REMARK   68  A    between atoms: _159  and  _160
REMARK   69  A    between atoms: _166  and  _168
REMARK   70  A    between atoms: _168  and  _169
REMARK   71  A    between atoms: _168  and  _171
REMARK   72  A    between atoms: _171  and  _172
REMARK   73  A    between atoms: _174  and  _176
REMARK   74  A    between atoms: _176  and  _177
REMARK   75  A    between atoms: _176  and  _179
REMARK   76  A    between atoms: _179  and  _180
REMARK   77  A    between atoms: _190  and  _192
REMARK   78  A    between atoms: _192  and  _193
REMARK   79  A    between atoms: _192  and  _195
REMARK   80  A    between atoms: _195  and  _196
REMARK   81  A    between atoms: _196  and  _197
REMARK   82  A    between atoms: _197  and  _198
REMARK   83  A    between atoms: _207  and  _209
REMARK   84  A    between atoms: _209  and  _210
REMARK   85  A    between atoms: _212  and  _214
REMARK   86  A    between atoms: _214  and  _215
REMARK   87  A    between atoms: _217  and  _219
REMARK   88  A    between atoms: _219  and  _220
REMARK   89  A    between atoms: _219  and  _222
REMARK   90  A    between atoms: _222  and  _223
REMARK   91  A    between atoms: _223  and  _224
REMARK   92  A    between atoms: _227  and  _229
REMARK   93  A    between atoms: _229  and  _230
REMARK   94  A    between atoms: _229  and  _232
REMARK   95  A    between atoms: _232  and  _233
REMARK   96  A    between atoms: _233  and  _234
REMARK   97  A    between atoms: _234  and  _235
REMARK   98  A    between atoms: _244  and  _246
REMARK   99  A    between atoms: _246  and  _247
REMARK  100  A    between atoms: _246  and  _249
REMARK  101  A    between atoms: _249  and  _250
REMARK  102  A    between atoms: _250  and  _251
REMARK  103  A    between atoms: _254  and  _256
REMARK  104  A    between atoms: _256  and  _257
REMARK  105  A    between atoms: _256  and  _259
REMARK  106  A    between atoms: _259  and  _260
REMARK  107  A    between atoms: _263  and  _265
REMARK  108  A    between atoms: _265  and  _266
REMARK  109  A    between atoms: _265  and  _268
REMARK  110  A    between atoms: _268  and  _269
REMARK  111  A    between atoms: _272  and  _274
REMARK  112  A    between atoms: _274  and  _275
REMARK  113  A    between atoms: _274  and  _277
REMARK  114  A    between atoms: _277  and  _278
REMARK  115  A    between atoms: _281  and  _283
REMARK  116  A    between atoms: _283  and  _284
REMARK  117  A    between atoms: _283  and  _286
REMARK  118  A    between atoms: _286  and  _287
REMARK  119  A    between atoms: _287  and  _288
REMARK  120  A    between atoms: _293  and  _295
REMARK  121  A    between atoms: _295  and  _296
REMARK  122  A    between atoms: _298  and  _300
REMARK  123  A    between atoms: _300  and  _301
REMARK  124  A    between atoms: _300  and  _303
REMARK  125  A    between atoms: _303  and  _304
REMARK  126  A    between atoms: _307  and  _309
REMARK  127  A    between atoms: _309  and  _310
REMARK  128  A    between atoms: _309  and  _312
REMARK  129  A    between atoms: _312  and  _313
REMARK  130  A    between atoms: _318  and  _320
REMARK  131  A    between atoms: _320  and  _321
REMARK  132  A    between atoms: _320  and  _323
REMARK  133  A    between atoms: _323  and  _324
REMARK  134  A    between atoms: _327  and  _329
REMARK  135  A    between atoms: _329  and  _330
REMARK  136  A    between atoms: _329  and  _332
REMARK  137  A    between atoms: _332  and  _333
REMARK  138  A    between atoms: _335  and  _337
REMARK  139  A    between atoms: _337  and  _338
REMARK  140  A    between atoms: _337  and  _340
REMARK  141  A    between atoms: _340  and  _341
REMARK  142  A    between atoms: _341  and  _342
REMARK  143  A    between atoms: _347  and  _349
REMARK  144  A    between atoms: _349  and  _350
REMARK  145  A    between atoms: _349  and  _352
REMARK  146  A    between atoms: _352  and  _353
REMARK  147  A    between atoms: _356  and  _358
REMARK  148  A    between atoms: _358  and  _359
REMARK  149  A    between atoms: _358  and  _361
REMARK  150  A    between atoms: _364  and  _366
REMARK  151  A    between atoms: _366  and  _367
REMARK  152  A    between atoms: _366  and  _369
REMARK  153  A    between atoms: _369  and  _370
REMARK  154  A    between atoms: _370  and  _371
REMARK  155  A    between atoms: _371  and  _372
REMARK  156  A    between atoms: _381  and  _383
REMARK  157  A    between atoms: _383  and  _384
REMARK  158  A    between atoms: _383  and  _386
REMARK  159  A    between atoms: _386  and  _387
REMARK  160  A    between atoms: _390  and  _392
REMARK  161  A    between atoms: _392  and  _393
REMARK  162  A    between atoms: _392  and  _395
REMARK  163  A    between atoms: _395  and  _396
REMARK  164  A    between atoms: _406  and  _408
REMARK  165  A    between atoms: _408  and  _409
REMARK  166  A    between atoms: _408  and  _411
REMARK  167  A    between atoms: _411  and  _412
REMARK  168  A    between atoms: _416  and  _417
REMARK  169  A    between atoms: _422  and  _424
REMARK  170  A    between atoms: _424  and  _425
REMARK  171  A    between atoms: _424  and  _427
REMARK  172  A    between atoms: _427  and  _428
REMARK  173  A    between atoms: _434  and  _435
REMARK  174  A    between atoms: _440  and  _442
REMARK  175  A    between atoms: _442  and  _443
REMARK  176  A    between atoms: _445  and  _447
REMARK  177  A    between atoms: _447  and  _448
REMARK  178  A    between atoms: _447  and  _450
REMARK  179  A    between atoms: _450  and  _451
REMARK  180  A    between atoms: _454  and  _456
REMARK  181  A    between atoms: _456  and  _457
REMARK  182  A    between atoms: _456  and  _459
REMARK  183  A    between atoms: _459  and  _460
REMARK  184  A    between atoms: _460  and  _461
REMARK  185  A    between atoms: _461  and  _462
REMARK  186  A    between atoms: _462  and  _463
REMARK  187  A    between atoms: _467  and  _469
REMARK  188  A    between atoms: _469  and  _470
REMARK  189  A    between atoms: _469  and  _472
REMARK  190  A    between atoms: _475  and  _477
REMARK  191  A    between atoms: _477  and  _478
REMARK  192  A    between atoms: _481  and  _483
REMARK  193  A    between atoms: _483  and  _484
REMARK  194  A    between atoms: _483  and  _486
REMARK  195  A    between atoms: _486  and  _487
REMARK  196  A    between atoms: _490  and  _492
REMARK  197  A    between atoms: _492  and  _493
REMARK  198  A    between atoms: _492  and  _495
REMARK  199  A    between atoms: _495  and  _496
REMARK  200  A    between atoms: _502  and  _503
REMARK  201  A    between atoms: _508  and  _510
REMARK  202  A    between atoms: _510  and  _511
REMARK  203  A    between atoms: _510  and  _513
REMARK  204  A    between atoms: _513  and  _514
REMARK  205  A    between atoms: _520  and  _522
REMARK  206  A    between atoms: _522  and  _523
REMARK  207  A    between atoms: _522  and  _525
REMARK  208  A    between atoms: _525  and  _526
REMARK  209  A    between atoms: _529  and  _531
REMARK  210  A    between atoms: _531  and  _532
REMARK  211  A    between atoms: _534  and  _536
REMARK  212  A    between atoms: _536  and  _537
REMARK  213  A    between atoms: _536  and  _539
REMARK  214  A    between atoms: _539  and  _540
REMARK  215  A    between atoms: _543  and  _545
REMARK  216  A    between atoms: _545  and  _546
REMARK  217  A    between atoms: _545  and  _548
REMARK  218  A    between atoms: _548  and  _549
REMARK  219  A    between atoms: _555  and  _557
REMARK  220  A    between atoms: _557  and  _558
REMARK  221  A    between atoms: _557  and  _560
REMARK  222  A    between atoms: _560  and  _561
REMARK  223  A    between atoms: _561  and  _562
REMARK  224  A    between atoms: _567  and  _569
REMARK  225  A    between atoms: _569  and  _570
REMARK  226  A    between atoms: _569  and  _572
REMARK  227  A    between atoms: _572  and  _573
REMARK  228  A    between atoms: _576  and  _578
REMARK  229  A    between atoms: _578  and  _579
REMARK  230  A    between atoms: _578  and  _581
REMARK  231  A    between atoms: _581  and  _582
REMARK  232  A    between atoms: _584  and  _586
REMARK  233  A    between atoms: _586  and  _587
REMARK  234  A    between atoms: _586  and  _589
REMARK  235  A    between atoms: _589  and  _590
REMARK  236  A    between atoms: _596  and  _598
REMARK  237  A    between atoms: _598  and  _599
REMARK  238  A    between atoms: _598  and  _601
REMARK  239  A    between atoms: _601  and  _602
REMARK  240  A    between atoms: _607  and  _608
REMARK  241  A    between atoms: _610  and  _612
REMARK  242  A    between atoms: _612  and  _613
REMARK  243  A    between atoms: _612  and  _615
REMARK  244  A    between atoms: _615  and  _616
REMARK                            x       y       z     vdW  Elec       q    Type
REMARK                         _______ _______ _______ _____ _____    ______ ____
ROOT
ATOM      1  O   HOH     1     -22.812   1.726  45.724  0.00  0.00    +0.000 OA
ENDROOT
TORSDOF 0
REMARK  Name = ../refined-set-2016/4ido/4ido_pocket.pdb
REMARK  244 active torsions:
REMARK  status: ('A' for Active; 'I' for Inactive)
REMARK    1  A    between atoms: _1  and  _3
REMARK    2  A    between atoms: _3  and  _4
REMARK    3  A    between atoms: _3  and  _6
REMARK    4  A    between atoms: _9  and  _11
REMARK    5  A    between atoms: _11  and  _12
REMARK    6  A    between atoms: _15  and  _17
REMARK    7  A    between atoms: _17  and  _18
REMARK    8  A    between atoms: _20  and  _22
REMARK    9  A    between atoms: _22  and  _23
REMARK   10  A    between atoms: _26  and  _28
REMARK   11  A    between atoms: _28  and  _29
REMARK   12  A    between atoms: _28  and  _31
REMARK   13  A    between atoms: _31  and  _32
REMARK   14  A    between atoms: _38  and  _40
REMARK   15  A    between atoms: _40  and  _41
REMARK   16  A    between atoms: _40  and  _43
REMARK   17  A    between atoms: _43  and  _44
REMARK   18  A    between atoms: _44  and  _45
REMARK   19  A    between atoms: _45  and  _46
REMARK   20  A    between atoms: _55  and  _57
REMARK   21  A    between atoms: _57  and  _58
REMARK   22  A    between atoms: _57  and  _60
REMARK   23  A    between atoms: _60  and  _61
REMARK   24  A    between atoms: _61  and  _62
REMARK   25  A    between atoms: _62  and  _63
REMARK   26  A    between atoms: _63  and  _64
REMARK   27  A    between atoms: _68  and  _70
REMARK   28  A    between atoms: _70  and  _71
REMARK   29  A    between atoms: _73  and  _75
REMARK   30  A    between atoms: _75  and  _76
REMARK   31  A    between atoms: _75  and  _78
REMARK   32  A    between atoms: _78  and  _79
REMARK   33  A    between atoms: _79  and  _80
REMARK   34  A    between atoms: _80  and  _81
REMARK   35  A    between atoms: _81  and  _82
REMARK   36  A    between atoms: _86  and  _88
REMARK   37  A    between atoms: _88  and  _89
REMARK   38  A    between atoms: _88  and  _91
REMARK   39  A    between atoms: _91  and  _92
REMARK   40  A    between atoms: _94  and  _96
REMARK   41  A    between atoms: _96  and  _97
REMARK   42  A    between atoms: _96  and  _99
REMARK   43  A    between atoms: _99  and  _100
REMARK   44  A    between atoms: _106  and  _108
REMARK   45  A    between atoms: _108  and  _109
REMARK   46  A    between atoms: _108  and  _111
REMARK   47  A    between atoms: _111  and  _112
REMARK   48  A    between atoms: _115  and  _117
REMARK   49  A    between atoms: _117  and  _118
REMARK   50  A    between atoms: _117  and  _120
REMARK   51  A    between atoms: _120  and  _121
REMARK   52  A    between atoms: _121  and  _122
REMARK   53  A    between atoms: _124  and  _126
REMARK   54  A    between atoms: _126  and  _127
REMARK   55  A    between atoms: _126  and  _129
REMARK   56  A    between atoms: _129  and  _130
REMARK   57  A    between atoms: _133  and  _135
REMARK   58  A    between atoms: _135  and  _136
REMARK   59  A    between atoms: _135  and  _138
REMARK   60  A    between atoms: _138  and  _139
REMARK   61  A    between atoms: _145  and  _147
REMARK   62  A    between atoms: _147  and  _148
REMARK   63  A    between atoms: _147  and  _150
REMARK   64  A    between atoms: _150  and  _151
REMARK   65  A    between atoms: _154  and  _156
REMARK   66  A    between atoms: _156  and  _157
REMARK   67  A    between atoms: _156  and  _159
REMARK   68  A    between atoms: _159  and  _160
REMARK   69  A    between atoms: _166  and  _168
REMARK   70  A    between atoms: _168  and  _169
REMARK   71  A    between atoms: _168  and  _171
REMARK   72  A    between atoms: _171  and  _172
REMARK   73  A    between atoms: _174  and  _176
REMARK   74  A    between atoms: _176  and  _177
REMARK   75  A    between atoms: _176  and  _179
REMARK   76  A    between atoms: _179  and  _180
REMARK   77  A    between atoms: _190  and  _192
REMARK   78  A    between atoms: _192  and  _193
REMARK   79  A    between atoms: _192  and  _195
REMARK   80  A    between atoms: _195  and  _196
REMARK   81  A    between atoms: _196  and  _197
REMARK   82  A    between atoms: _197  and  _198
REMARK   83  A    between atoms: _207  and  _209
REMARK   84  A    between atoms: _209  and  _210
REMARK   85  A    between atoms: _212  and  _214
REMARK   86  A    between atoms: _214  and  _215
REMARK   87  A    between atoms: _217  and  _219
REMARK   88  A    between atoms: _219  and  _220
REMARK   89  A    between atoms: _219  and  _222
REMARK   90  A    between atoms: _222  and  _223
REMARK   91  A    between atoms: _223  and  _224
REMARK   92  A    between atoms: _227  and  _229
REMARK   93  A    between atoms: _229  and  _230
REMARK   94  A    between atoms: _229  and  _232
REMARK   95  A    between atoms: _232  and  _233
REMARK   96  A    between atoms: _233  and  _234
REMARK   97  A    between atoms: _234  and  _235
REMARK   98  A    between atoms: _244  and  _246
REMARK   99  A    between atoms: _246  and  _247
REMARK  100  A    between atoms: _246  and  _249
REMARK  101  A    between atoms: _249  and  _250
REMARK  102  A    between atoms: _250  and  _251
REMARK  103  A    between atoms: _254  and  _256
REMARK  104  A    between atoms: _256  and  _257
REMARK  105  A    between atoms: _256  and  _259
REMARK  106  A    between atoms: _259  and  _260
REMARK  107  A    between atoms: _263  and  _265
REMARK  108  A    between atoms: _265  and  _266
REMARK  109  A    between atoms: _265  and  _268
REMARK  110  A    between atoms: _268  and  _269
REMARK  111  A    between atoms: _272  and  _274
REMARK  112  A    between atoms: _274  and  _275
REMARK  113  A    between atoms: _274  and  _277
REMARK  114  A    between atoms: _277  and  _278
REMARK  115  A    between atoms: _281  and  _283
REMARK  116  A    between atoms: _283  and  _284
REMARK  117  A    between atoms: _283  and  _286
REMARK  118  A    between atoms: _286  and  _287
REMARK  119  A    between atoms: _287  and  _288
REMARK  120  A    between atoms: _293  and  _295
REMARK  121  A    between atoms: _295  and  _296
REMARK  122  A    between atoms: _298  and  _300
REMARK  123  A    between atoms: _300  and  _301
REMARK  124  A    between atoms: _300  and  _303
REMARK  125  A    between atoms: _303  and  _304
REMARK  126  A    between atoms: _307  and  _309
REMARK  127  A    between atoms: _309  and  _310
REMARK  128  A    between atoms: _309  and  _312
REMARK  129  A    between atoms: _312  and  _313
REMARK  130  A    between atoms: _318  and  _320
REMARK  131  A    between atoms: _320  and  _321
REMARK  132  A    between atoms: _320  and  _323
REMARK  133  A    between atoms: _323  and  _324
REMARK  134  A    between atoms: _327  and  _329
REMARK  135  A    between atoms: _329  and  _330
REMARK  136  A    between atoms: _329  and  _332
REMARK  137  A    between atoms: _332  and  _333
REMARK  138  A    between atoms: _335  and  _337
REMARK  139  A    between atoms: _337  and  _338
REMARK  140  A    between atoms: _337  and  _340
REMARK  141  A    between atoms: _340  and  _341
REMARK  142  A    between atoms: _341  and  _342
REMARK  143  A    between atoms: _347  and  _349
REMARK  144  A    between atoms: _349  and  _350
REMARK  145  A    between atoms: _349  and  _352
REMARK  146  A    between atoms: _352  and  _353
REMARK  147  A    between atoms: _356  and  _358
REMARK  148  A    between atoms: _358  and  _359
REMARK  149  A    between atoms: _358  and  _361
REMARK  150  A    between atoms: _364  and  _366
REMARK  151  A    between atoms: _366  and  _367
REMARK  152  A    between atoms: _366  and  _369
REMARK  153  A    between atoms: _369  and  _370
REMARK  154  A    between atoms: _370  and  _371
REMARK  155  A    between atoms: _371  and  _372
REMARK  156  A    between atoms: _381  and  _383
REMARK  157  A    between atoms: _383  and  _384
REMARK  158  A    between atoms: _383  and  _386
REMARK  159  A    between atoms: _386  and  _387
REMARK  160  A    between atoms: _390  and  _392
REMARK  161  A    between atoms: _392  and  _393
REMARK  162  A    between atoms: _392  and  _395
REMARK  163  A    between atoms: _395  and  _396
REMARK  164  A    between atoms: _406  and  _408
REMARK  165  A    between atoms: _408  and  _409
REMARK  166  A    between atoms: _408  and  _411
REMARK  167  A    between atoms: _411  and  _412
REMARK  168  A    between atoms: _416  and  _417
REMARK  169  A    between atoms: _422  and  _424
REMARK  170  A    between atoms: _424  and  _425
REMARK  171  A    between atoms: _424  and  _427
REMARK  172  A    between atoms: _427  and  _428
REMARK  173  A    between atoms: _434  and  _435
REMARK  174  A    between atoms: _440  and  _442
REMARK  175  A    between atoms: _442  and  _443
REMARK  176  A    between atoms: _445  and  _447
REMARK  177  A    between atoms: _447  and  _448
REMARK  178  A    between atoms: _447  and  _450
REMARK  179  A    between atoms: _450  and  _451
REMARK  180  A    between atoms: _454  and  _456
REMARK  181  A    between atoms: _456  and  _457
REMARK  182  A    between atoms: _456  and  _459
REMARK  183  A    between atoms: _459  and  _460
REMARK  184  A    between atoms: _460  and  _461
REMARK  185  A    between atoms: _461  and  _462
REMARK  186  A    between atoms: _462  and  _463
REMARK  187  A    between atoms: _467  and  _469
REMARK  188  A    between atoms: _469  and  _470
REMARK  189  A    between atoms: _469  and  _472
REMARK  190  A    between atoms: _475  and  _477
REMARK  191  A    between atoms: _477  and  _478
REMARK  192  A    between atoms: _481  and  _483
REMARK  193  A    between atoms: _483  and  _484
REMARK  194  A    between atoms: _483  and  _486
REMARK  195  A    between atoms: _486  and  _487
REMARK  196  A    between atoms: _490  and  _492
REMARK  197  A    between atoms: _492  and  _493
REMARK  198  A    between atoms: _492  and  _495
REMARK  199  A    between atoms: _495  and  _496
REMARK  200  A    between atoms: _502  and  _503
REMARK  201  A    between atoms: _508  and  _510
REMARK  202  A    between atoms: _510  and  _511
REMARK  203  A    between atoms: _510  and  _513
REMARK  204  A    between atoms: _513  and  _514
REMARK  205  A    between atoms: _520  and  _522
REMARK  206  A    between atoms: _522  and  _523
REMARK  207  A    between atoms: _522  and  _525
REMARK  208  A    between atoms: _525  and  _526
REMARK  209  A    between atoms: _529  and  _531
REMARK  210  A    between atoms: _531  and  _532
REMARK  211  A    between atoms: _534  and  _536
REMARK  212  A    between atoms: _536  and  _537
REMARK  213  A    between atoms: _536  and  _539
REMARK  214  A    between atoms: _539  and  _540
REMARK  215  A    between atoms: _543  and  _545
REMARK  216  A    between atoms: _545  and  _546
REMARK  217  A    between atoms: _545  and  _548
REMARK  218  A    between atoms: _548  and  _549
REMARK  219  A    between atoms: _555  and  _557
REMARK  220  A    between atoms: _557  and  _558
REMARK  221  A    between atoms: _557  and  _560
REMARK  222  A    between atoms: _560  and  _561
REMARK  223  A    between atoms: _561  and  _562
REMARK  224  A    between atoms: _567  and  _569
REMARK  225  A    between atoms: _569  and  _570
REMARK  226  A    between atoms: _569  and  _572
REMARK  227  A    between atoms: _572  and  _573
REMARK  228  A    between atoms: _576  and  _578
REMARK  229  A    between atoms: _578  and  _579
REMARK  230  A    between atoms: _578  and  _581
REMARK  231  A    between atoms: _581  and  _582
REMARK  232  A    between atoms: _584  and  _586
REMARK  233  A    between atoms: _586  and  _587
REMARK  234  A    between atoms: _586  and  _589
REMARK  235  A    between atoms: _589  and  _590
REMARK  236  A    between atoms: _596  and  _598
REMARK  237  A    between atoms: _598  and  _599
REMARK  238  A    between atoms: _598  and  _601
REMARK  239  A    between atoms: _601  and  _602
REMARK  240  A    between atoms: _607  and  _608
REMARK  241  A    between atoms: _610  and  _612
REMARK  242  A    between atoms: _612  and  _613
REMARK  243  A    between atoms: _612  and  _615
REMARK  244  A    between atoms: _615  and  _616
REMARK                            x       y       z     vdW  Elec       q    Type
REMARK                         _______ _______ _______ _____ _____    ______ ____
ROOT
ATOM      1  O   HOH     1     -25.947   4.040  34.811  0.00  0.00    +0.000 OA
ENDROOT
TORSDOF 0
REMARK  Name = ../refined-set-2016/4ido/4ido_pocket.pdb
REMARK  244 active torsions:
REMARK  status: ('A' for Active; 'I' for Inactive)
REMARK    1  A    between atoms: _1  and  _3
REMARK    2  A    between atoms: _3  and  _4
REMARK    3  A    between atoms: _3  and  _6
REMARK    4  A    between atoms: _9  and  _11
REMARK    5  A    between atoms: _11  and  _12
REMARK    6  A    between atoms: _15  and  _17
REMARK    7  A    between atoms: _17  and  _18
REMARK    8  A    between atoms: _20  and  _22
REMARK    9  A    between atoms: _22  and  _23
REMARK   10  A    between atoms: _26  and  _28
REMARK   11  A    between atoms: _28  and  _29
REMARK   12  A    between atoms: _28  and  _31
REMARK   13  A    between atoms: _31  and  _32
REMARK   14  A    between atoms: _38  and  _40
REMARK   15  A    between atoms: _40  and  _41
REMARK   16  A    between atoms: _40  and  _43
REMARK   17  A    between atoms: _43  and  _44
REMARK   18  A    between atoms: _44  and  _45
REMARK   19  A    between atoms: _45  and  _46
REMARK   20  A    between atoms: _55  and  _57
REMARK   21  A    between atoms: _57  and  _58
REMARK   22  A    between atoms: _57  and  _60
REMARK   23  A    between atoms: _60  and  _61
REMARK   24  A    between atoms: _61  and  _62
REMARK   25  A    between atoms: _62  and  _63
REMARK   26  A    between atoms: _63  and  _64
REMARK   27  A    between atoms: _68  and  _70
REMARK   28  A    between atoms: _70  and  _71
REMARK   29  A    between atoms: _73  and  _75
REMARK   30  A    between atoms: _75  and  _76
REMARK   31  A    between atoms: _75  and  _78
REMARK   32  A    between atoms: _78  and  _79
REMARK   33  A    between atoms: _79  and  _80
REMARK   34  A    between atoms: _80  and  _81
REMARK   35  A    between atoms: _81  and  _82
REMARK   36  A    between atoms: _86  and  _88
REMARK   37  A    between atoms: _88  and  _89
REMARK   38  A    between atoms: _88  and  _91
REMARK   39  A    between atoms: _91  and  _92
REMARK   40  A    between atoms: _94  and  _96
REMARK   41  A    between atoms: _96  and  _97
REMARK   42  A    between atoms: _96  and  _99
REMARK   43  A    between atoms: _99  and  _100
REMARK   44  A    between atoms: _106  and  _108
REMARK   45  A    between atoms: _108  and  _109
REMARK   46  A    between atoms: _108  and  _111
REMARK   47  A    between atoms: _111  and  _112
REMARK   48  A    between atoms: _115  and  _117
REMARK   49  A    between atoms: _117  and  _118
REMARK   50  A    between atoms: _117  and  _120
REMARK   51  A    between atoms: _120  and  _121
REMARK   52  A    between atoms: _121  and  _122
REMARK   53  A    between atoms: _124  and  _126
REMARK   54  A    between atoms: _126  and  _127
REMARK   55  A    between atoms: _126  and  _129
REMARK   56  A    between atoms: _129  and  _130
REMARK   57  A    between atoms: _133  and  _135
REMARK   58  A    between atoms: _135  and  _136
REMARK   59  A    between atoms: _135  and  _138
REMARK   60  A    between atoms: _138  and  _139
REMARK   61  A    between atoms: _145  and  _147
REMARK   62  A    between atoms: _147  and  _148
REMARK   63  A    between atoms: _147  and  _150
REMARK   64  A    between atoms: _150  and  _151
REMARK   65  A    between atoms: _154  and  _156
REMARK   66  A    between atoms: _156  and  _157
REMARK   67  A    between atoms: _156  and  _159
REMARK   68  A    between atoms: _159  and  _160
REMARK   69  A    between atoms: _166  and  _168
REMARK   70  A    between atoms: _168  and  _169
REMARK   71  A    between atoms: _168  and  _171
REMARK   72  A    between atoms: _171  and  _172
REMARK   73  A    between atoms: _174  and  _176
REMARK   74  A    between atoms: _176  and  _177
REMARK   75  A    between atoms: _176  and  _179
REMARK   76  A    between atoms: _179  and  _180
REMARK   77  A    between atoms: _190  and  _192
REMARK   78  A    between atoms: _192  and  _193
REMARK   79  A    between atoms: _192  and  _195
REMARK   80  A    between atoms: _195  and  _196
REMARK   81  A    between atoms: _196  and  _197
REMARK   82  A    between atoms: _197  and  _198
REMARK   83  A    between atoms: _207  and  _209
REMARK   84  A    between atoms: _209  and  _210
REMARK   85  A    between atoms: _212  and  _214
REMARK   86  A    between atoms: _214  and  _215
REMARK   87  A    between atoms: _217  and  _219
REMARK   88  A    between atoms: _219  and  _220
REMARK   89  A    between atoms: _219  and  _222
REMARK   90  A    between atoms: _222  and  _223
REMARK   91  A    between atoms: _223  and  _224
REMARK   92  A    between atoms: _227  and  _229
REMARK   93  A    between atoms: _229  and  _230
REMARK   94  A    between atoms: _229  and  _232
REMARK   95  A    between atoms: _232  and  _233
REMARK   96  A    between atoms: _233  and  _234
REMARK   97  A    between atoms: _234  and  _235
REMARK   98  A    between atoms: _244  and  _246
REMARK   99  A    between atoms: _246  and  _247
REMARK  100  A    between atoms: _246  and  _249
REMARK  101  A    between atoms: _249  and  _250
REMARK  102  A    between atoms: _250  and  _251
REMARK  103  A    between atoms: _254  and  _256
REMARK  104  A    between atoms: _256  and  _257
REMARK  105  A    between atoms: _256  and  _259
REMARK  106  A    between atoms: _259  and  _260
REMARK  107  A    between atoms: _263  and  _265
REMARK  108  A    between atoms: _265  and  _266
REMARK  109  A    between atoms: _265  and  _268
REMARK  110  A    between atoms: _268  and  _269
REMARK  111  A    between atoms: _272  and  _274
REMARK  112  A    between atoms: _274  and  _275
REMARK  113  A    between atoms: _274  and  _277
REMARK  114  A    between atoms: _277  and  _278
REMARK  115  A    between atoms: _281  and  _283
REMARK  116  A    between atoms: _283  and  _284
REMARK  117  A    between atoms: _283  and  _286
REMARK  118  A    between atoms: _286  and  _287
REMARK  119  A    between atoms: _287  and  _288
REMARK  120  A    between atoms: _293  and  _295
REMARK  121  A    between atoms: _295  and  _296
REMARK  122  A    between atoms: _298  and  _300
REMARK  123  A    between atoms: _300  and  _301
REMARK  124  A    between atoms: _300  and  _303
REMARK  125  A    between atoms: _303  and  _304
REMARK  126  A    between atoms: _307  and  _309
REMARK  127  A    between atoms: _309  and  _310
REMARK  128  A    between atoms: _309  and  _312
REMARK  129  A    between atoms: _312  and  _313
REMARK  130  A    between atoms: _318  and  _320
REMARK  131  A    between atoms: _320  and  _321
REMARK  132  A    between atoms: _320  and  _323
REMARK  133  A    between atoms: _323  and  _324
REMARK  134  A    between atoms: _327  and  _329
REMARK  135  A    between atoms: _329  and  _330
REMARK  136  A    between atoms: _329  and  _332
REMARK  137  A    between atoms: _332  and  _333
REMARK  138  A    between atoms: _335  and  _337
REMARK  139  A    between atoms: _337  and  _338
REMARK  140  A    between atoms: _337  and  _340
REMARK  141  A    between atoms: _340  and  _341
REMARK  142  A    between atoms: _341  and  _342
REMARK  143  A    between atoms: _347  and  _349
REMARK  144  A    between atoms: _349  and  _350
REMARK  145  A    between atoms: _349  and  _352
REMARK  146  A    between atoms: _352  and  _353
REMARK  147  A    between atoms: _356  and  _358
REMARK  148  A    between atoms: _358  and  _359
REMARK  149  A    between atoms: _358  and  _361
REMARK  150  A    between atoms: _364  and  _366
REMARK  151  A    between atoms: _366  and  _367
REMARK  152  A    between atoms: _366  and  _369
REMARK  153  A    between atoms: _369  and  _370
REMARK  154  A    between atoms: _370  and  _371
REMARK  155  A    between atoms: _371  and  _372
REMARK  156  A    between atoms: _381  and  _383
REMARK  157  A    between atoms: _383  and  _384
REMARK  158  A    between atoms: _383  and  _386
REMARK  159  A    between atoms: _386  and  _387
REMARK  160  A    between atoms: _390  and  _392
REMARK  161  A    between atoms: _392  and  _393
REMARK  162  A    between atoms: _392  and  _395
REMARK  163  A    between atoms: _395  and  _396
REMARK  164  A    between atoms: _406  and  _408
REMARK  165  A    between atoms: _408  and  _409
REMARK  166  A    between atoms: _408  and  _411
REMARK  167  A    between atoms: _411  and  _412
REMARK  168  A    between atoms: _416  and  _417
REMARK  169  A    between atoms: _422  and  _424
REMARK  170  A    between atoms: _424  and  _425
REMARK  171  A    between atoms: _424  and  _427
REMARK  172  A    between atoms: _427  and  _428
REMARK  173  A    between atoms: _434  and  _435
REMARK  174  A    between atoms: _440  and  _442
REMARK  175  A    between atoms: _442  and  _443
REMARK  176  A    between atoms: _445  and  _447
REMARK  177  A    between atoms: _447  and  _448
REMARK  178  A    between atoms: _447  and  _450
REMARK  179  A    between atoms: _450  and  _451
REMARK  180  A    between atoms: _454  and  _456
REMARK  181  A    between atoms: _456  and  _457
REMARK  182  A    between atoms: _456  and  _459
REMARK  183  A    between atoms: _459  and  _460
REMARK  184  A    between atoms: _460  and  _461
REMARK  185  A    between atoms: _461  and  _462
REMARK  186  A    between atoms: _462  and  _463
REMARK  187  A    between atoms: _467  and  _469
REMARK  188  A    between atoms: _469  and  _470
REMARK  189  A    between atoms: _469  and  _472
REMARK  190  A    between atoms: _475  and  _477
REMARK  191  A    between atoms: _477  and  _478
REMARK  192  A    between atoms: _481  and  _483
REMARK  193  A    between atoms: _483  and  _484
REMARK  194  A    between atoms: _483  and  _486
REMARK  195  A    between atoms: _486  and  _487
REMARK  196  A    between atoms: _490  and  _492
REMARK  197  A    between atoms: _492  and  _493
REMARK  198  A    between atoms: _492  and  _495
REMARK  199  A    between atoms: _495  and  _496
REMARK  200  A    between atoms: _502  and  _503
REMARK  201  A    between atoms: _508  and  _510
REMARK  202  A    between atoms: _510  and  _511
REMARK  203  A    between atoms: _510  and  _513
REMARK  204  A    between atoms: _513  and  _514
REMARK  205  A    between atoms: _520  and  _522
REMARK  206  A    between atoms: _522  and  _523
REMARK  207  A    between atoms: _522  and  _525
REMARK  208  A    between atoms: _525  and  _526
REMARK  209  A    between atoms: _529  and  _531
REMARK  210  A    between atoms: _531  and  _532
REMARK  211  A    between atoms: _534  and  _536
REMARK  212  A    between atoms: _536  and  _537
REMARK  213  A    between atoms: _536  and  _539
REMARK  214  A    between atoms: _539  and  _540
REMARK  215  A    between atoms: _543  and  _545
REMARK  216  A    between atoms: _545  and  _546
REMARK  217  A    between atoms: _545  and  _548
REMARK  218  A    between atoms: _548  and  _549
REMARK  219  A    between atoms: _555  and  _557
REMARK  220  A    between atoms: _557  and  _558
REMARK  221  A    between atoms: _557  and  _560
REMARK  222  A    between atoms: _560  and  _561
REMARK  223  A    between atoms: _561  and  _562
REMARK  224  A    between atoms: _567  and  _569
REMARK  225  A    between atoms: _569  and  _570
REMARK  226  A    between atoms: _569  and  _572
REMARK  227  A    between atoms: _572  and  _573
REMARK  228  A    between atoms: _576  and  _578
REMARK  229  A    between atoms: _578  and  _579
REMARK  230  A    between atoms: _578  and  _581
REMARK  231  A    between atoms: _581  and  _582
REMARK  232  A    between atoms: _584  and  _586
REMARK  233  A    between atoms: _586  and  _587
REMARK  234  A    between atoms: _586  and  _589
REMARK  235  A    between atoms: _589  and  _590
REMARK  236  A    between atoms: _596  and  _598
REMARK  237  A    between atoms: _598  and  _599
REMARK  238  A    between atoms: _598  and  _601
REMARK  239  A    between atoms: _601  and  _602
REMARK  240  A    between atoms: _607  and  _608
REMARK  241  A    between atoms: _610  and  _612
REMARK  242  A    between atoms: _612  and  _613
REMARK  243  A    between atoms: _612  and  _615
REMARK  244  A    between atoms: _615  and  _616
REMARK                            x       y       z     vdW  Elec       q    Type
REMARK                         _______ _______ _______ _____ _____    ______ ____
ROOT
ATOM      1  O   HOH     1     -21.984   5.289  49.201  0.00  0.00    +0.000 OA
ENDROOT
TORSDOF 0
REMARK  Name = ../refined-set-2016/4ido/4ido_pocket.pdb
REMARK  244 active torsions:
REMARK  status: ('A' for Active; 'I' for Inactive)
REMARK    1  A    between atoms: _1  and  _3
REMARK    2  A    between atoms: _3  and  _4
REMARK    3  A    between atoms: _3  and  _6
REMARK    4  A    between atoms: _9  and  _11
REMARK    5  A    between atoms: _11  and  _12
REMARK    6  A    between atoms: _15  and  _17
REMARK    7  A    between atoms: _17  and  _18
REMARK    8  A    between atoms: _20  and  _22
REMARK    9  A    between atoms: _22  and  _23
REMARK   10  A    between atoms: _26  and  _28
REMARK   11  A    between atoms: _28  and  _29
REMARK   12  A    between atoms: _28  and  _31
REMARK   13  A    between atoms: _31  and  _32
REMARK   14  A    between atoms: _38  and  _40
REMARK   15  A    between atoms: _40  and  _41
REMARK   16  A    between atoms: _40  and  _43
REMARK   17  A    between atoms: _43  and  _44
REMARK   18  A    between atoms: _44  and  _45
REMARK   19  A    between atoms: _45  and  _46
REMARK   20  A    between atoms: _55  and  _57
REMARK   21  A    between atoms: _57  and  _58
REMARK   22  A    between atoms: _57  and  _60
REMARK   23  A    between atoms: _60  and  _61
REMARK   24  A    between atoms: _61  and  _62
REMARK   25  A    between atoms: _62  and  _63
REMARK   26  A    between atoms: _63  and  _64
REMARK   27  A    between atoms: _68  and  _70
REMARK   28  A    between atoms: _70  and  _71
REMARK   29  A    between atoms: _73  and  _75
REMARK   30  A    between atoms: _75  and  _76
REMARK   31  A    between atoms: _75  and  _78
REMARK   32  A    between atoms: _78  and  _79
REMARK   33  A    between atoms: _79  and  _80
REMARK   34  A    between atoms: _80  and  _81
REMARK   35  A    between atoms: _81  and  _82
REMARK   36  A    between atoms: _86  and  _88
REMARK   37  A    between atoms: _88  and  _89
REMARK   38  A    between atoms: _88  and  _91
REMARK   39  A    between atoms: _91  and  _92
REMARK   40  A    between atoms: _94  and  _96
REMARK   41  A    between atoms: _96  and  _97
REMARK   42  A    between atoms: _96  and  _99
REMARK   43  A    between atoms: _99  and  _100
REMARK   44  A    between atoms: _106  and  _108
REMARK   45  A    between atoms: _108  and  _109
REMARK   46  A    between atoms: _108  and  _111
REMARK   47  A    between atoms: _111  and  _112
REMARK   48  A    between atoms: _115  and  _117
REMARK   49  A    between atoms: _117  and  _118
REMARK   50  A    between atoms: _117  and  _120
REMARK   51  A    between atoms: _120  and  _121
REMARK   52  A    between atoms: _121  and  _122
REMARK   53  A    between atoms: _124  and  _126
REMARK   54  A    between atoms: _126  and  _127
REMARK   55  A    between atoms: _126  and  _129
REMARK   56  A    between atoms: _129  and  _130
REMARK   57  A    between atoms: _133  and  _135
REMARK   58  A    between atoms: _135  and  _136
REMARK   59  A    between atoms: _135  and  _138
REMARK   60  A    between atoms: _138  and  _139
REMARK   61  A    between atoms: _145  and  _147
REMARK   62  A    between atoms: _147  and  _148
REMARK   63  A    between atoms: _147  and  _150
REMARK   64  A    between atoms: _150  and  _151
REMARK   65  A    between atoms: _154  and  _156
REMARK   66  A    between atoms: _156  and  _157
REMARK   67  A    between atoms: _156  and  _159
REMARK   68  A    between atoms: _159  and  _160
REMARK   69  A    between atoms: _166  and  _168
REMARK   70  A    between atoms: _168  and  _169
REMARK   71  A    between atoms: _168  and  _171
REMARK   72  A    between atoms: _171  and  _172
REMARK   73  A    between atoms: _174  and  _176
REMARK   74  A    between atoms: _176  and  _177
REMARK   75  A    between atoms: _176  and  _179
REMARK   76  A    between atoms: _179  and  _180
REMARK   77  A    between atoms: _190  and  _192
REMARK   78  A    between atoms: _192  and  _193
REMARK   79  A    between atoms: _192  and  _195
REMARK   80  A    between atoms: _195  and  _196
REMARK   81  A    between atoms: _196  and  _197
REMARK   82  A    between atoms: _197  and  _198
REMARK   83  A    between atoms: _207  and  _209
REMARK   84  A    between atoms: _209  and  _210
REMARK   85  A    between atoms: _212  and  _214
REMARK   86  A    between atoms: _214  and  _215
REMARK   87  A    between atoms: _217  and  _219
REMARK   88  A    between atoms: _219  and  _220
REMARK   89  A    between atoms: _219  and  _222
REMARK   90  A    between atoms: _222  and  _223
REMARK   91  A    between atoms: _223  and  _224
REMARK   92  A    between atoms: _227  and  _229
REMARK   93  A    between atoms: _229  and  _230
REMARK   94  A    between atoms: _229  and  _232
REMARK   95  A    between atoms: _232  and  _233
REMARK   96  A    between atoms: _233  and  _234
REMARK   97  A    between atoms: _234  and  _235
REMARK   98  A    between atoms: _244  and  _246
REMARK   99  A    between atoms: _246  and  _247
REMARK  100  A    between atoms: _246  and  _249
REMARK  101  A    between atoms: _249  and  _250
REMARK  102  A    between atoms: _250  and  _251
REMARK  103  A    between atoms: _254  and  _256
REMARK  104  A    between atoms: _256  and  _257
REMARK  105  A    between atoms: _256  and  _259
REMARK  106  A    between atoms: _259  and  _260
REMARK  107  A    between atoms: _263  and  _265
REMARK  108  A    between atoms: _265  and  _266
REMARK  109  A    between atoms: _265  and  _268
REMARK  110  A    between atoms: _268  and  _269
REMARK  111  A    between atoms: _272  and  _274
REMARK  112  A    between atoms: _274  and  _275
REMARK  113  A    between atoms: _274  and  _277
REMARK  114  A    between atoms: _277  and  _278
REMARK  115  A    between atoms: _281  and  _283
REMARK  116  A    between atoms: _283  and  _284
REMARK  117  A    between atoms: _283  and  _286
REMARK  118  A    between atoms: _286  and  _287
REMARK  119  A    between atoms: _287  and  _288
REMARK  120  A    between atoms: _293  and  _295
REMARK  121  A    between atoms: _295  and  _296
REMARK  122  A    between atoms: _298  and  _300
REMARK  123  A    between atoms: _300  and  _301
REMARK  124  A    between atoms: _300  and  _303
REMARK  125  A    between atoms: _303  and  _304
REMARK  126  A    between atoms: _307  and  _309
REMARK  127  A    between atoms: _309  and  _310
REMARK  128  A    between atoms: _309  and  _312
REMARK  129  A    between atoms: _312  and  _313
REMARK  130  A    between atoms: _318  and  _320
REMARK  131  A    between atoms: _320  and  _321
REMARK  132  A    between atoms: _320  and  _323
REMARK  133  A    between atoms: _323  and  _324
REMARK  134  A    between atoms: _327  and  _329
REMARK  135  A    between atoms: _329  and  _330
REMARK  136  A    between atoms: _329  and  _332
REMARK  137  A    between atoms: _332  and  _333
REMARK  138  A    between atoms: _335  and  _337
REMARK  139  A    between atoms: _337  and  _338
REMARK  140  A    between atoms: _337  and  _340
REMARK  141  A    between atoms: _340  and  _341
REMARK  142  A    between atoms: _341  and  _342
REMARK  143  A    between atoms: _347  and  _349
REMARK  144  A    between atoms: _349  and  _350
REMARK  145  A    between atoms: _349  and  _352
REMARK  146  A    between atoms: _352  and  _353
REMARK  147  A    between atoms: _356  and  _358
REMARK  148  A    between atoms: _358  and  _359
REMARK  149  A    between atoms: _358  and  _361
REMARK  150  A    between atoms: _364  and  _366
REMARK  151  A    between atoms: _366  and  _367
REMARK  152  A    between atoms: _366  and  _369
REMARK  153  A    between atoms: _369  and  _370
REMARK  154  A    between atoms: _370  and  _371
REMARK  155  A    between atoms: _371  and  _372
REMARK  156  A    between atoms: _381  and  _383
REMARK  157  A    between atoms: _383  and  _384
REMARK  158  A    between atoms: _383  and  _386
REMARK  159  A    between atoms: _386  and  _387
REMARK  160  A    between atoms: _390  and  _392
REMARK  161  A    between atoms: _392  and  _393
REMARK  162  A    between atoms: _392  and  _395
REMARK  163  A    between atoms: _395  and  _396
REMARK  164  A    between atoms: _406  and  _408
REMARK  165  A    between atoms: _408  and  _409
REMARK  166  A    between atoms: _408  and  _411
REMARK  167  A    between atoms: _411  and  _412
REMARK  168  A    between atoms: _416  and  _417
REMARK  169  A    between atoms: _422  and  _424
REMARK  170  A    between atoms: _424  and  _425
REMARK  171  A    between atoms: _424  and  _427
REMARK  172  A    between atoms: _427  and  _428
REMARK  173  A    between atoms: _434  and  _435
REMARK  174  A    between atoms: _440  and  _442
REMARK  175  A    between atoms: _442  and  _443
REMARK  176  A    between atoms: _445  and  _447
REMARK  177  A    between atoms: _447  and  _448
REMARK  178  A    between atoms: _447  and  _450
REMARK  179  A    between atoms: _450  and  _451
REMARK  180  A    between atoms: _454  and  _456
REMARK  181  A    between atoms: _456  and  _457
REMARK  182  A    between atoms: _456  and  _459
REMARK  183  A    between atoms: _459  and  _460
REMARK  184  A    between atoms: _460  and  _461
REMARK  185  A    between atoms: _461  and  _462
REMARK  186  A    between atoms: _462  and  _463
REMARK  187  A    between atoms: _467  and  _469
REMARK  188  A    between atoms: _469  and  _470
REMARK  189  A    between atoms: _469  and  _472
REMARK  190  A    between atoms: _475  and  _477
REMARK  191  A    between atoms: _477  and  _478
REMARK  192  A    between atoms: _481  and  _483
REMARK  193  A    between atoms: _483  and  _484
REMARK  194  A    between atoms: _483  and  _486
REMARK  195  A    between atoms: _486  and  _487
REMARK  196  A    between atoms: _490  and  _492
REMARK  197  A    between atoms: _492  and  _493
REMARK  198  A    between atoms: _492  and  _495
REMARK  199  A    between atoms: _495  and  _496
REMARK  200  A    between atoms: _502  and  _503
REMARK  201  A    between atoms: _508  and  _510
REMARK  202  A    between atoms: _510  and  _511
REMARK  203  A    between atoms: _510  and  _513
REMARK  204  A    between atoms: _513  and  _514
REMARK  205  A    between atoms: _520  and  _522
REMARK  206  A    between atoms: _522  and  _523
REMARK  207  A    between atoms: _522  and  _525
REMARK  208  A    between atoms: _525  and  _526
REMARK  209  A    between atoms: _529  and  _531
REMARK  210  A    between atoms: _531  and  _532
REMARK  211  A    between atoms: _534  and  _536
REMARK  212  A    between atoms: _536  and  _537
REMARK  213  A    between atoms: _536  and  _539
REMARK  214  A    between atoms: _539  and  _540
REMARK  215  A    between atoms: _543  and  _545
REMARK  216  A    between atoms: _545  and  _546
REMARK  217  A    between atoms: _545  and  _548
REMARK  218  A    between atoms: _548  and  _549
REMARK  219  A    between atoms: _555  and  _557
REMARK  220  A    between atoms: _557  and  _558
REMARK  221  A    between atoms: _557  and  _560
REMARK  222  A    between atoms: _560  and  _561
REMARK  223  A    between atoms: _561  and  _562
REMARK  224  A    between atoms: _567  and  _569
REMARK  225  A    between atoms: _569  and  _570
REMARK  226  A    between atoms: _569  and  _572
REMARK  227  A    between atoms: _572  and  _573
REMARK  228  A    between atoms: _576  and  _578
REMARK  229  A    between atoms: _578  and  _579
REMARK  230  A    between atoms: _578  and  _581
REMARK  231  A    between atoms: _581  and  _582
REMARK  232  A    between atoms: _584  and  _586
REMARK  233  A    between atoms: _586  and  _587
REMARK  234  A    between atoms: _586  and  _589
REMARK  235  A    between atoms: _589  and  _590
REMARK  236  A    between atoms: _596  and  _598
REMARK  237  A    between atoms: _598  and  _599
REMARK  238  A    between atoms: _598  and  _601
REMARK  239  A    between atoms: _601  and  _602
REMARK  240  A    between atoms: _607  and  _608
REMARK  241  A    between atoms: _610  and  _612
REMARK  242  A    between atoms: _612  and  _613
REMARK  243  A    between atoms: _612  and  _615
REMARK  244  A    between atoms: _615  and  _616
REMARK                            x       y       z     vdW  Elec       q    Type
REMARK                         _______ _______ _______ _____ _____    ______ ____
ROOT
ATOM      1  O   HOH     1     -18.763   3.560  46.401  0.00  0.00    +0.000 OA
ENDROOT
TORSDOF 0
REMARK  Name = ../refined-set-2016/4ido/4ido_pocket.pdb
REMARK  244 active torsions:
REMARK  status: ('A' for Active; 'I' for Inactive)
REMARK    1  A    between atoms: _1  and  _3
REMARK    2  A    between atoms: _3  and  _4
REMARK    3  A    between atoms: _3  and  _6
REMARK    4  A    between atoms: _9  and  _11
REMARK    5  A    between atoms: _11  and  _12
REMARK    6  A    between atoms: _15  and  _17
REMARK    7  A    between atoms: _17  and  _18
REMARK    8  A    between atoms: _20  and  _22
REMARK    9  A    between atoms: _22  and  _23
REMARK   10  A    between atoms: _26  and  _28
REMARK   11  A    between atoms: _28  and  _29
REMARK   12  A    between atoms: _28  and  _31
REMARK   13  A    between atoms: _31  and  _32
REMARK   14  A    between atoms: _38  and  _40
REMARK   15  A    between atoms: _40  and  _41
REMARK   16  A    between atoms: _40  and  _43
REMARK   17  A    between atoms: _43  and  _44
REMARK   18  A    between atoms: _44  and  _45
REMARK   19  A    between atoms: _45  and  _46
REMARK   20  A    between atoms: _55  and  _57
REMARK   21  A    between atoms: _57  and  _58
REMARK   22  A    between atoms: _57  and  _60
REMARK   23  A    between atoms: _60  and  _61
REMARK   24  A    between atoms: _61  and  _62
REMARK   25  A    between atoms: _62  and  _63
REMARK   26  A    between atoms: _63  and  _64
REMARK   27  A    between atoms: _68  and  _70
REMARK   28  A    between atoms: _70  and  _71
REMARK   29  A    between atoms: _73  and  _75
REMARK   30  A    between atoms: _75  and  _76
REMARK   31  A    between atoms: _75  and  _78
REMARK   32  A    between atoms: _78  and  _79
REMARK   33  A    between atoms: _79  and  _80
REMARK   34  A    between atoms: _80  and  _81
REMARK   35  A    between atoms: _81  and  _82
REMARK   36  A    between atoms: _86  and  _88
REMARK   37  A    between atoms: _88  and  _89
REMARK   38  A    between atoms: _88  and  _91
REMARK   39  A    between atoms: _91  and  _92
REMARK   40  A    between atoms: _94  and  _96
REMARK   41  A    between atoms: _96  and  _97
REMARK   42  A    between atoms: _96  and  _99
REMARK   43  A    between atoms: _99  and  _100
REMARK   44  A    between atoms: _106  and  _108
REMARK   45  A    between atoms: _108  and  _109
REMARK   46  A    between atoms: _108  and  _111
REMARK   47  A    between atoms: _111  and  _112
REMARK   48  A    between atoms: _115  and  _117
REMARK   49  A    between atoms: _117  and  _118
REMARK   50  A    between atoms: _117  and  _120
REMARK   51  A    between atoms: _120  and  _121
REMARK   52  A    between atoms: _121  and  _122
REMARK   53  A    between atoms: _124  and  _126
REMARK   54  A    between atoms: _126  and  _127
REMARK   55  A    between atoms: _126  and  _129
REMARK   56  A    between atoms: _129  and  _130
REMARK   57  A    between atoms: _133  and  _135
REMARK   58  A    between atoms: _135  and  _136
REMARK   59  A    between atoms: _135  and  _138
REMARK   60  A    between atoms: _138  and  _139
REMARK   61  A    between atoms: _145  and  _147
REMARK   62  A    between atoms: _147  and  _148
REMARK   63  A    between atoms: _147  and  _150
REMARK   64  A    between atoms: _150  and  _151
REMARK   65  A    between atoms: _154  and  _156
REMARK   66  A    between atoms: _156  and  _157
REMARK   67  A    between atoms: _156  and  _159
REMARK   68  A    between atoms: _159  and  _160
REMARK   69  A    between atoms: _166  and  _168
REMARK   70  A    between atoms: _168  and  _169
REMARK   71  A    between atoms: _168  and  _171
REMARK   72  A    between atoms: _171  and  _172
REMARK   73  A    between atoms: _174  and  _176
REMARK   74  A    between atoms: _176  and  _177
REMARK   75  A    between atoms: _176  and  _179
REMARK   76  A    between atoms: _179  and  _180
REMARK   77  A    between atoms: _190  and  _192
REMARK   78  A    between atoms: _192  and  _193
REMARK   79  A    between atoms: _192  and  _195
REMARK   80  A    between atoms: _195  and  _196
REMARK   81  A    between atoms: _196  and  _197
REMARK   82  A    between atoms: _197  and  _198
REMARK   83  A    between atoms: _207  and  _209
REMARK   84  A    between atoms: _209  and  _210
REMARK   85  A    between atoms: _212  and  _214
REMARK   86  A    between atoms: _214  and  _215
REMARK   87  A    between atoms: _217  and  _219
REMARK   88  A    between atoms: _219  and  _220
REMARK   89  A    between atoms: _219  and  _222
REMARK   90  A    between atoms: _222  and  _223
REMARK   91  A    between atoms: _223  and  _224
REMARK   92  A    between atoms: _227  and  _229
REMARK   93  A    between atoms: _229  and  _230
REMARK   94  A    between atoms: _229  and  _232
REMARK   95  A    between atoms: _232  and  _233
REMARK   96  A    between atoms: _233  and  _234
REMARK   97  A    between atoms: _234  and  _235
REMARK   98  A    between atoms: _244  and  _246
REMARK   99  A    between atoms: _246  and  _247
REMARK  100  A    between atoms: _246  and  _249
REMARK  101  A    between atoms: _249  and  _250
REMARK  102  A    between atoms: _250  and  _251
REMARK  103  A    between atoms: _254  and  _256
REMARK  104  A    between atoms: _256  and  _257
REMARK  105  A    between atoms: _256  and  _259
REMARK  106  A    between atoms: _259  and  _260
REMARK  107  A    between atoms: _263  and  _265
REMARK  108  A    between atoms: _265  and  _266
REMARK  109  A    between atoms: _265  and  _268
REMARK  110  A    between atoms: _268  and  _269
REMARK  111  A    between atoms: _272  and  _274
REMARK  112  A    between atoms: _274  and  _275
REMARK  113  A    between atoms: _274  and  _277
REMARK  114  A    between atoms: _277  and  _278
REMARK  115  A    between atoms: _281  and  _283
REMARK  116  A    between atoms: _283  and  _284
REMARK  117  A    between atoms: _283  and  _286
REMARK  118  A    between atoms: _286  and  _287
REMARK  119  A    between atoms: _287  and  _288
REMARK  120  A    between atoms: _293  and  _295
REMARK  121  A    between atoms: _295  and  _296
REMARK  122  A    between atoms: _298  and  _300
REMARK  123  A    between atoms: _300  and  _301
REMARK  124  A    between atoms: _300  and  _303
REMARK  125  A    between atoms: _303  and  _304
REMARK  126  A    between atoms: _307  and  _309
REMARK  127  A    between atoms: _309  and  _310
REMARK  128  A    between atoms: _309  and  _312
REMARK  129  A    between atoms: _312  and  _313
REMARK  130  A    between atoms: _318  and  _320
REMARK  131  A    between atoms: _320  and  _321
REMARK  132  A    between atoms: _320  and  _323
REMARK  133  A    between atoms: _323  and  _324
REMARK  134  A    between atoms: _327  and  _329
REMARK  135  A    between atoms: _329  and  _330
REMARK  136  A    between atoms: _329  and  _332
REMARK  137  A    between atoms: _332  and  _333
REMARK  138  A    between atoms: _335  and  _337
REMARK  139  A    between atoms: _337  and  _338
REMARK  140  A    between atoms: _337  and  _340
REMARK  141  A    between atoms: _340  and  _341
REMARK  142  A    between atoms: _341  and  _342
REMARK  143  A    between atoms: _347  and  _349
REMARK  144  A    between atoms: _349  and  _350
REMARK  145  A    between atoms: _349  and  _352
REMARK  146  A    between atoms: _352  and  _353
REMARK  147  A    between atoms: _356  and  _358
REMARK  148  A    between atoms: _358  and  _359
REMARK  149  A    between atoms: _358  and  _361
REMARK  150  A    between atoms: _364  and  _366
REMARK  151  A    between atoms: _366  and  _367
REMARK  152  A    between atoms: _366  and  _369
REMARK  153  A    between atoms: _369  and  _370
REMARK  154  A    between atoms: _370  and  _371
REMARK  155  A    between atoms: _371  and  _372
REMARK  156  A    between atoms: _381  and  _383
REMARK  157  A    between atoms: _383  and  _384
REMARK  158  A    between atoms: _383  and  _386
REMARK  159  A    between atoms: _386  and  _387
REMARK  160  A    between atoms: _390  and  _392
REMARK  161  A    between atoms: _392  and  _393
REMARK  162  A    between atoms: _392  and  _395
REMARK  163  A    between atoms: _395  and  _396
REMARK  164  A    between atoms: _406  and  _408
REMARK  165  A    between atoms: _408  and  _409
REMARK  166  A    between atoms: _408  and  _411
REMARK  167  A    between atoms: _411  and  _412
REMARK  168  A    between atoms: _416  and  _417
REMARK  169  A    between atoms: _422  and  _424
REMARK  170  A    between atoms: _424  and  _425
REMARK  171  A    between atoms: _424  and  _427
REMARK  172  A    between atoms: _427  and  _428
REMARK  173  A    between atoms: _434  and  _435
REMARK  174  A    between atoms: _440  and  _442
REMARK  175  A    between atoms: _442  and  _443
REMARK  176  A    between atoms: _445  and  _447
REMARK  177  A    between atoms: _447  and  _448
REMARK  178  A    between atoms: _447  and  _450
REMARK  179  A    between atoms: _450  and  _451
REMARK  180  A    between atoms: _454  and  _456
REMARK  181  A    between atoms: _456  and  _457
REMARK  182  A    between atoms: _456  and  _459
REMARK  183  A    between atoms: _459  and  _460
REMARK  184  A    between atoms: _460  and  _461
REMARK  185  A    between atoms: _461  and  _462
REMARK  186  A    between atoms: _462  and  _463
REMARK  187  A    between atoms: _467  and  _469
REMARK  188  A    between atoms: _469  and  _470
REMARK  189  A    between atoms: _469  and  _472
REMARK  190  A    between atoms: _475  and  _477
REMARK  191  A    between atoms: _477  and  _478
REMARK  192  A    between atoms: _481  and  _483
REMARK  193  A    between atoms: _483  and  _484
REMARK  194  A    between atoms: _483  and  _486
REMARK  195  A    between atoms: _486  and  _487
REMARK  196  A    between atoms: _490  and  _492
REMARK  197  A    between atoms: _492  and  _493
REMARK  198  A    between atoms: _492  and  _495
REMARK  199  A    between atoms: _495  and  _496
REMARK  200  A    between atoms: _502  and  _503
REMARK  201  A    between atoms: _508  and  _510
REMARK  202  A    between atoms: _510  and  _511
REMARK  203  A    between atoms: _510  and  _513
REMARK  204  A    between atoms: _513  and  _514
REMARK  205  A    between atoms: _520  and  _522
REMARK  206  A    between atoms: _522  and  _523
REMARK  207  A    between atoms: _522  and  _525
REMARK  208  A    between atoms: _525  and  _526
REMARK  209  A    between atoms: _529  and  _531
REMARK  210  A    between atoms: _531  and  _532
REMARK  211  A    between atoms: _534  and  _536
REMARK  212  A    between atoms: _536  and  _537
REMARK  213  A    between atoms: _536  and  _539
REMARK  214  A    between atoms: _539  and  _540
REMARK  215  A    between atoms: _543  and  _545
REMARK  216  A    between atoms: _545  and  _546
REMARK  217  A    between atoms: _545  and  _548
REMARK  218  A    between atoms: _548  and  _549
REMARK  219  A    between atoms: _555  and  _557
REMARK  220  A    between atoms: _557  and  _558
REMARK  221  A    between atoms: _557  and  _560
REMARK  222  A    between atoms: _560  and  _561
REMARK  223  A    between atoms: _561  and  _562
REMARK  224  A    between atoms: _567  and  _569
REMARK  225  A    between atoms: _569  and  _570
REMARK  226  A    between atoms: _569  and  _572
REMARK  227  A    between atoms: _572  and  _573
REMARK  228  A    between atoms: _576  and  _578
REMARK  229  A    between atoms: _578  and  _579
REMARK  230  A    between atoms: _578  and  _581
REMARK  231  A    between atoms: _581  and  _582
REMARK  232  A    between atoms: _584  and  _586
REMARK  233  A    between atoms: _586  and  _587
REMARK  234  A    between atoms: _586  and  _589
REMARK  235  A    between atoms: _589  and  _590
REMARK  236  A    between atoms: _596  and  _598
REMARK  237  A    between atoms: _598  and  _599
REMARK  238  A    between atoms: _598  and  _601
REMARK  239  A    between atoms: _601  and  _602
REMARK  240  A    between atoms: _607  and  _608
REMARK  241  A    between atoms: _610  and  _612
REMARK  242  A    between atoms: _612  and  _613
REMARK  243  A    between atoms: _612  and  _615
REMARK  244  A    between atoms: _615  and  _616
REMARK                            x       y       z     vdW  Elec       q    Type
REMARK                         _______ _______ _______ _____ _____    ______ ____
ROOT
ATOM      1  O   HOH     1     -17.208   7.293  47.356  0.00  0.00    +0.000 OA
ENDROOT
TORSDOF 0
REMARK  Name = ../refined-set-2016/4ido/4ido_pocket.pdb
REMARK  244 active torsions:
REMARK  status: ('A' for Active; 'I' for Inactive)
REMARK    1  A    between atoms: _1  and  _3
REMARK    2  A    between atoms: _3  and  _4
REMARK    3  A    between atoms: _3  and  _6
REMARK    4  A    between atoms: _9  and  _11
REMARK    5  A    between atoms: _11  and  _12
REMARK    6  A    between atoms: _15  and  _17
REMARK    7  A    between atoms: _17  and  _18
REMARK    8  A    between atoms: _20  and  _22
REMARK    9  A    between atoms: _22  and  _23
REMARK   10  A    between atoms: _26  and  _28
REMARK   11  A    between atoms: _28  and  _29
REMARK   12  A    between atoms: _28  and  _31
REMARK   13  A    between atoms: _31  and  _32
REMARK   14  A    between atoms: _38  and  _40
REMARK   15  A    between atoms: _40  and  _41
REMARK   16  A    between atoms: _40  and  _43
REMARK   17  A    between atoms: _43  and  _44
REMARK   18  A    between atoms: _44  and  _45
REMARK   19  A    between atoms: _45  and  _46
REMARK   20  A    between atoms: _55  and  _57
REMARK   21  A    between atoms: _57  and  _58
REMARK   22  A    between atoms: _57  and  _60
REMARK   23  A    between atoms: _60  and  _61
REMARK   24  A    between atoms: _61  and  _62
REMARK   25  A    between atoms: _62  and  _63
REMARK   26  A    between atoms: _63  and  _64
REMARK   27  A    between atoms: _68  and  _70
REMARK   28  A    between atoms: _70  and  _71
REMARK   29  A    between atoms: _73  and  _75
REMARK   30  A    between atoms: _75  and  _76
REMARK   31  A    between atoms: _75  and  _78
REMARK   32  A    between atoms: _78  and  _79
REMARK   33  A    between atoms: _79  and  _80
REMARK   34  A    between atoms: _80  and  _81
REMARK   35  A    between atoms: _81  and  _82
REMARK   36  A    between atoms: _86  and  _88
REMARK   37  A    between atoms: _88  and  _89
REMARK   38  A    between atoms: _88  and  _91
REMARK   39  A    between atoms: _91  and  _92
REMARK   40  A    between atoms: _94  and  _96
REMARK   41  A    between atoms: _96  and  _97
REMARK   42  A    between atoms: _96  and  _99
REMARK   43  A    between atoms: _99  and  _100
REMARK   44  A    between atoms: _106  and  _108
REMARK   45  A    between atoms: _108  and  _109
REMARK   46  A    between atoms: _108  and  _111
REMARK   47  A    between atoms: _111  and  _112
REMARK   48  A    between atoms: _115  and  _117
REMARK   49  A    between atoms: _117  and  _118
REMARK   50  A    between atoms: _117  and  _120
REMARK   51  A    between atoms: _120  and  _121
REMARK   52  A    between atoms: _121  and  _122
REMARK   53  A    between atoms: _124  and  _126
REMARK   54  A    between atoms: _126  and  _127
REMARK   55  A    between atoms: _126  and  _129
REMARK   56  A    between atoms: _129  and  _130
REMARK   57  A    between atoms: _133  and  _135
REMARK   58  A    between atoms: _135  and  _136
REMARK   59  A    between atoms: _135  and  _138
REMARK   60  A    between atoms: _138  and  _139
REMARK   61  A    between atoms: _145  and  _147
REMARK   62  A    between atoms: _147  and  _148
REMARK   63  A    between atoms: _147  and  _150
REMARK   64  A    between atoms: _150  and  _151
REMARK   65  A    between atoms: _154  and  _156
REMARK   66  A    between atoms: _156  and  _157
REMARK   67  A    between atoms: _156  and  _159
REMARK   68  A    between atoms: _159  and  _160
REMARK   69  A    between atoms: _166  and  _168
REMARK   70  A    between atoms: _168  and  _169
REMARK   71  A    between atoms: _168  and  _171
REMARK   72  A    between atoms: _171  and  _172
REMARK   73  A    between atoms: _174  and  _176
REMARK   74  A    between atoms: _176  and  _177
REMARK   75  A    between atoms: _176  and  _179
REMARK   76  A    between atoms: _179  and  _180
REMARK   77  A    between atoms: _190  and  _192
REMARK   78  A    between atoms: _192  and  _193
REMARK   79  A    between atoms: _192  and  _195
REMARK   80  A    between atoms: _195  and  _196
REMARK   81  A    between atoms: _196  and  _197
REMARK   82  A    between atoms: _197  and  _198
REMARK   83  A    between atoms: _207  and  _209
REMARK   84  A    between atoms: _209  and  _210
REMARK   85  A    between atoms: _212  and  _214
REMARK   86  A    between atoms: _214  and  _215
REMARK   87  A    between atoms: _217  and  _219
REMARK   88  A    between atoms: _219  and  _220
REMARK   89  A    between atoms: _219  and  _222
REMARK   90  A    between atoms: _222  and  _223
REMARK   91  A    between atoms: _223  and  _224
REMARK   92  A    between atoms: _227  and  _229
REMARK   93  A    between atoms: _229  and  _230
REMARK   94  A    between atoms: _229  and  _232
REMARK   95  A    between atoms: _232  and  _233
REMARK   96  A    between atoms: _233  and  _234
REMARK   97  A    between atoms: _234  and  _235
REMARK   98  A    between atoms: _244  and  _246
REMARK   99  A    between atoms: _246  and  _247
REMARK  100  A    between atoms: _246  and  _249
REMARK  101  A    between atoms: _249  and  _250
REMARK  102  A    between atoms: _250  and  _251
REMARK  103  A    between atoms: _254  and  _256
REMARK  104  A    between atoms: _256  and  _257
REMARK  105  A    between atoms: _256  and  _259
REMARK  106  A    between atoms: _259  and  _260
REMARK  107  A    between atoms: _263  and  _265
REMARK  108  A    between atoms: _265  and  _266
REMARK  109  A    between atoms: _265  and  _268
REMARK  110  A    between atoms: _268  and  _269
REMARK  111  A    between atoms: _272  and  _274
REMARK  112  A    between atoms: _274  and  _275
REMARK  113  A    between atoms: _274  and  _277
REMARK  114  A    between atoms: _277  and  _278
REMARK  115  A    between atoms: _281  and  _283
REMARK  116  A    between atoms: _283  and  _284
REMARK  117  A    between atoms: _283  and  _286
REMARK  118  A    between atoms: _286  and  _287
REMARK  119  A    between atoms: _287  and  _288
REMARK  120  A    between atoms: _293  and  _295
REMARK  121  A    between atoms: _295  and  _296
REMARK  122  A    between atoms: _298  and  _300
REMARK  123  A    between atoms: _300  and  _301
REMARK  124  A    between atoms: _300  and  _303
REMARK  125  A    between atoms: _303  and  _304
REMARK  126  A    between atoms: _307  and  _309
REMARK  127  A    between atoms: _309  and  _310
REMARK  128  A    between atoms: _309  and  _312
REMARK  129  A    between atoms: _312  and  _313
REMARK  130  A    between atoms: _318  and  _320
REMARK  131  A    between atoms: _320  and  _321
REMARK  132  A    between atoms: _320  and  _323
REMARK  133  A    between atoms: _323  and  _324
REMARK  134  A    between atoms: _327  and  _329
REMARK  135  A    between atoms: _329  and  _330
REMARK  136  A    between atoms: _329  and  _332
REMARK  137  A    between atoms: _332  and  _333
REMARK  138  A    between atoms: _335  and  _337
REMARK  139  A    between atoms: _337  and  _338
REMARK  140  A    between atoms: _337  and  _340
REMARK  141  A    between atoms: _340  and  _341
REMARK  142  A    between atoms: _341  and  _342
REMARK  143  A    between atoms: _347  and  _349
REMARK  144  A    between atoms: _349  and  _350
REMARK  145  A    between atoms: _349  and  _352
REMARK  146  A    between atoms: _352  and  _353
REMARK  147  A    between atoms: _356  and  _358
REMARK  148  A    between atoms: _358  and  _359
REMARK  149  A    between atoms: _358  and  _361
REMARK  150  A    between atoms: _364  and  _366
REMARK  151  A    between atoms: _366  and  _367
REMARK  152  A    between atoms: _366  and  _369
REMARK  153  A    between atoms: _369  and  _370
REMARK  154  A    between atoms: _370  and  _371
REMARK  155  A    between atoms: _371  and  _372
REMARK  156  A    between atoms: _381  and  _383
REMARK  157  A    between atoms: _383  and  _384
REMARK  158  A    between atoms: _383  and  _386
REMARK  159  A    between atoms: _386  and  _387
REMARK  160  A    between atoms: _390  and  _392
REMARK  161  A    between atoms: _392  and  _393
REMARK  162  A    between atoms: _392  and  _395
REMARK  163  A    between atoms: _395  and  _396
REMARK  164  A    between atoms: _406  and  _408
REMARK  165  A    between atoms: _408  and  _409
REMARK  166  A    between atoms: _408  and  _411
REMARK  167  A    between atoms: _411  and  _412
REMARK  168  A    between atoms: _416  and  _417
REMARK  169  A    between atoms: _422  and  _424
REMARK  170  A    between atoms: _424  and  _425
REMARK  171  A    between atoms: _424  and  _427
REMARK  172  A    between atoms: _427  and  _428
REMARK  173  A    between atoms: _434  and  _435
REMARK  174  A    between atoms: _440  and  _442
REMARK  175  A    between atoms: _442  and  _443
REMARK  176  A    between atoms: _445  and  _447
REMARK  177  A    between atoms: _447  and  _448
REMARK  178  A    between atoms: _447  and  _450
REMARK  179  A    between atoms: _450  and  _451
REMARK  180  A    between atoms: _454  and  _456
REMARK  181  A    between atoms: _456  and  _457
REMARK  182  A    between atoms: _456  and  _459
REMARK  183  A    between atoms: _459  and  _460
REMARK  184  A    between atoms: _460  and  _461
REMARK  185  A    between atoms: _461  and  _462
REMARK  186  A    between atoms: _462  and  _463
REMARK  187  A    between atoms: _467  and  _469
REMARK  188  A    between atoms: _469  and  _470
REMARK  189  A    between atoms: _469  and  _472
REMARK  190  A    between atoms: _475  and  _477
REMARK  191  A    between atoms: _477  and  _478
REMARK  192  A    between atoms: _481  and  _483
REMARK  193  A    between atoms: _483  and  _484
REMARK  194  A    between atoms: _483  and  _486
REMARK  195  A    between atoms: _486  and  _487
REMARK  196  A    between atoms: _490  and  _492
REMARK  197  A    between atoms: _492  and  _493
REMARK  198  A    between atoms: _492  and  _495
REMARK  199  A    between atoms: _495  and  _496
REMARK  200  A    between atoms: _502  and  _503
REMARK  201  A    between atoms: _508  and  _510
REMARK  202  A    between atoms: _510  and  _511
REMARK  203  A    between atoms: _510  and  _513
REMARK  204  A    between atoms: _513  and  _514
REMARK  205  A    between atoms: _520  and  _522
REMARK  206  A    between atoms: _522  and  _523
REMARK  207  A    between atoms: _522  and  _525
REMARK  208  A    between atoms: _525  and  _526
REMARK  209  A    between atoms: _529  and  _531
REMARK  210  A    between atoms: _531  and  _532
REMARK  211  A    between atoms: _534  and  _536
REMARK  212  A    between atoms: _536  and  _537
REMARK  213  A    between atoms: _536  and  _539
REMARK  214  A    between atoms: _539  and  _540
REMARK  215  A    between atoms: _543  and  _545
REMARK  216  A    between atoms: _545  and  _546
REMARK  217  A    between atoms: _545  and  _548
REMARK  218  A    between atoms: _548  and  _549
REMARK  219  A    between atoms: _555  and  _557
REMARK  220  A    between atoms: _557  and  _558
REMARK  221  A    between atoms: _557  and  _560
REMARK  222  A    between atoms: _560  and  _561
REMARK  223  A    between atoms: _561  and  _562
REMARK  224  A    between atoms: _567  and  _569
REMARK  225  A    between atoms: _569  and  _570
REMARK  226  A    between atoms: _569  and  _572
REMARK  227  A    between atoms: _572  and  _573
REMARK  228  A    between atoms: _576  and  _578
REMARK  229  A    between atoms: _578  and  _579
REMARK  230  A    between atoms: _578  and  _581
REMARK  231  A    between atoms: _581  and  _582
REMARK  232  A    between atoms: _584  and  _586
REMARK  233  A    between atoms: _586  and  _587
REMARK  234  A    between atoms: _586  and  _589
REMARK  235  A    between atoms: _589  and  _590
REMARK  236  A    between atoms: _596  and  _598
REMARK  237  A    between atoms: _598  and  _599
REMARK  238  A    between atoms: _598  and  _601
REMARK  239  A    between atoms: _601  and  _602
REMARK  240  A    between atoms: _607  and  _608
REMARK  241  A    between atoms: _610  and  _612
REMARK  242  A    between atoms: _612  and  _613
REMARK  243  A    between atoms: _612  and  _615
REMARK  244  A    between atoms: _615  and  _616
REMARK                            x       y       z     vdW  Elec       q    Type
REMARK                         _______ _______ _______ _____ _____    ______ ____
ROOT
ATOM      1  O   HOH     1     -11.665   2.587  49.057  0.00  0.00    +0.000 OA
ENDROOT
TORSDOF 0
REMARK  Name = ../refined-set-2016/4ido/4ido_pocket.pdb
REMARK  244 active torsions:
REMARK  status: ('A' for Active; 'I' for Inactive)
REMARK    1  A    between atoms: _1  and  _3
REMARK    2  A    between atoms: _3  and  _4
REMARK    3  A    between atoms: _3  and  _6
REMARK    4  A    between atoms: _9  and  _11
REMARK    5  A    between atoms: _11  and  _12
REMARK    6  A    between atoms: _15  and  _17
REMARK    7  A    between atoms: _17  and  _18
REMARK    8  A    between atoms: _20  and  _22
REMARK    9  A    between atoms: _22  and  _23
REMARK   10  A    between atoms: _26  and  _28
REMARK   11  A    between atoms: _28  and  _29
REMARK   12  A    between atoms: _28  and  _31
REMARK   13  A    between atoms: _31  and  _32
REMARK   14  A    between atoms: _38  and  _40
REMARK   15  A    between atoms: _40  and  _41
REMARK   16  A    between atoms: _40  and  _43
REMARK   17  A    between atoms: _43  and  _44
REMARK   18  A    between atoms: _44  and  _45
REMARK   19  A    between atoms: _45  and  _46
REMARK   20  A    between atoms: _55  and  _57
REMARK   21  A    between atoms: _57  and  _58
REMARK   22  A    between atoms: _57  and  _60
REMARK   23  A    between atoms: _60  and  _61
REMARK   24  A    between atoms: _61  and  _62
REMARK   25  A    between atoms: _62  and  _63
REMARK   26  A    between atoms: _63  and  _64
REMARK   27  A    between atoms: _68  and  _70
REMARK   28  A    between atoms: _70  and  _71
REMARK   29  A    between atoms: _73  and  _75
REMARK   30  A    between atoms: _75  and  _76
REMARK   31  A    between atoms: _75  and  _78
REMARK   32  A    between atoms: _78  and  _79
REMARK   33  A    between atoms: _79  and  _80
REMARK   34  A    between atoms: _80  and  _81
REMARK   35  A    between atoms: _81  and  _82
REMARK   36  A    between atoms: _86  and  _88
REMARK   37  A    between atoms: _88  and  _89
REMARK   38  A    between atoms: _88  and  _91
REMARK   39  A    between atoms: _91  and  _92
REMARK   40  A    between atoms: _94  and  _96
REMARK   41  A    between atoms: _96  and  _97
REMARK   42  A    between atoms: _96  and  _99
REMARK   43  A    between atoms: _99  and  _100
REMARK   44  A    between atoms: _106  and  _108
REMARK   45  A    between atoms: _108  and  _109
REMARK   46  A    between atoms: _108  and  _111
REMARK   47  A    between atoms: _111  and  _112
REMARK   48  A    between atoms: _115  and  _117
REMARK   49  A    between atoms: _117  and  _118
REMARK   50  A    between atoms: _117  and  _120
REMARK   51  A    between atoms: _120  and  _121
REMARK   52  A    between atoms: _121  and  _122
REMARK   53  A    between atoms: _124  and  _126
REMARK   54  A    between atoms: _126  and  _127
REMARK   55  A    between atoms: _126  and  _129
REMARK   56  A    between atoms: _129  and  _130
REMARK   57  A    between atoms: _133  and  _135
REMARK   58  A    between atoms: _135  and  _136
REMARK   59  A    between atoms: _135  and  _138
REMARK   60  A    between atoms: _138  and  _139
REMARK   61  A    between atoms: _145  and  _147
REMARK   62  A    between atoms: _147  and  _148
REMARK   63  A    between atoms: _147  and  _150
REMARK   64  A    between atoms: _150  and  _151
REMARK   65  A    between atoms: _154  and  _156
REMARK   66  A    between atoms: _156  and  _157
REMARK   67  A    between atoms: _156  and  _159
REMARK   68  A    between atoms: _159  and  _160
REMARK   69  A    between atoms: _166  and  _168
REMARK   70  A    between atoms: _168  and  _169
REMARK   71  A    between atoms: _168  and  _171
REMARK   72  A    between atoms: _171  and  _172
REMARK   73  A    between atoms: _174  and  _176
REMARK   74  A    between atoms: _176  and  _177
REMARK   75  A    between atoms: _176  and  _179
REMARK   76  A    between atoms: _179  and  _180
REMARK   77  A    between atoms: _190  and  _192
REMARK   78  A    between atoms: _192  and  _193
REMARK   79  A    between atoms: _192  and  _195
REMARK   80  A    between atoms: _195  and  _196
REMARK   81  A    between atoms: _196  and  _197
REMARK   82  A    between atoms: _197  and  _198
REMARK   83  A    between atoms: _207  and  _209
REMARK   84  A    between atoms: _209  and  _210
REMARK   85  A    between atoms: _212  and  _214
REMARK   86  A    between atoms: _214  and  _215
REMARK   87  A    between atoms: _217  and  _219
REMARK   88  A    between atoms: _219  and  _220
REMARK   89  A    between atoms: _219  and  _222
REMARK   90  A    between atoms: _222  and  _223
REMARK   91  A    between atoms: _223  and  _224
REMARK   92  A    between atoms: _227  and  _229
REMARK   93  A    between atoms: _229  and  _230
REMARK   94  A    between atoms: _229  and  _232
REMARK   95  A    between atoms: _232  and  _233
REMARK   96  A    between atoms: _233  and  _234
REMARK   97  A    between atoms: _234  and  _235
REMARK   98  A    between atoms: _244  and  _246
REMARK   99  A    between atoms: _246  and  _247
REMARK  100  A    between atoms: _246  and  _249
REMARK  101  A    between atoms: _249  and  _250
REMARK  102  A    between atoms: _250  and  _251
REMARK  103  A    between atoms: _254  and  _256
REMARK  104  A    between atoms: _256  and  _257
REMARK  105  A    between atoms: _256  and  _259
REMARK  106  A    between atoms: _259  and  _260
REMARK  107  A    between atoms: _263  and  _265
REMARK  108  A    between atoms: _265  and  _266
REMARK  109  A    between atoms: _265  and  _268
REMARK  110  A    between atoms: _268  and  _269
REMARK  111  A    between atoms: _272  and  _274
REMARK  112  A    between atoms: _274  and  _275
REMARK  113  A    between atoms: _274  and  _277
REMARK  114  A    between atoms: _277  and  _278
REMARK  115  A    between atoms: _281  and  _283
REMARK  116  A    between atoms: _283  and  _284
REMARK  117  A    between atoms: _283  and  _286
REMARK  118  A    between atoms: _286  and  _287
REMARK  119  A    between atoms: _287  and  _288
REMARK  120  A    between atoms: _293  and  _295
REMARK  121  A    between atoms: _295  and  _296
REMARK  122  A    between atoms: _298  and  _300
REMARK  123  A    between atoms: _300  and  _301
REMARK  124  A    between atoms: _300  and  _303
REMARK  125  A    between atoms: _303  and  _304
REMARK  126  A    between atoms: _307  and  _309
REMARK  127  A    between atoms: _309  and  _310
REMARK  128  A    between atoms: _309  and  _312
REMARK  129  A    between atoms: _312  and  _313
REMARK  130  A    between atoms: _318  and  _320
REMARK  131  A    between atoms: _320  and  _321
REMARK  132  A    between atoms: _320  and  _323
REMARK  133  A    between atoms: _323  and  _324
REMARK  134  A    between atoms: _327  and  _329
REMARK  135  A    between atoms: _329  and  _330
REMARK  136  A    between atoms: _329  and  _332
REMARK  137  A    between atoms: _332  and  _333
REMARK  138  A    between atoms: _335  and  _337
REMARK  139  A    between atoms: _337  and  _338
REMARK  140  A    between atoms: _337  and  _340
REMARK  141  A    between atoms: _340  and  _341
REMARK  142  A    between atoms: _341  and  _342
REMARK  143  A    between atoms: _347  and  _349
REMARK  144  A    between atoms: _349  and  _350
REMARK  145  A    between atoms: _349  and  _352
REMARK  146  A    between atoms: _352  and  _353
REMARK  147  A    between atoms: _356  and  _358
REMARK  148  A    between atoms: _358  and  _359
REMARK  149  A    between atoms: _358  and  _361
REMARK  150  A    between atoms: _364  and  _366
REMARK  151  A    between atoms: _366  and  _367
REMARK  152  A    between atoms: _366  and  _369
REMARK  153  A    between atoms: _369  and  _370
REMARK  154  A    between atoms: _370  and  _371
REMARK  155  A    between atoms: _371  and  _372
REMARK  156  A    between atoms: _381  and  _383
REMARK  157  A    between atoms: _383  and  _384
REMARK  158  A    between atoms: _383  and  _386
REMARK  159  A    between atoms: _386  and  _387
REMARK  160  A    between atoms: _390  and  _392
REMARK  161  A    between atoms: _392  and  _393
REMARK  162  A    between atoms: _392  and  _395
REMARK  163  A    between atoms: _395  and  _396
REMARK  164  A    between atoms: _406  and  _408
REMARK  165  A    between atoms: _408  and  _409
REMARK  166  A    between atoms: _408  and  _411
REMARK  167  A    between atoms: _411  and  _412
REMARK  168  A    between atoms: _416  and  _417
REMARK  169  A    between atoms: _422  and  _424
REMARK  170  A    between atoms: _424  and  _425
REMARK  171  A    between atoms: _424  and  _427
REMARK  172  A    between atoms: _427  and  _428
REMARK  173  A    between atoms: _434  and  _435
REMARK  174  A    between atoms: _440  and  _442
REMARK  175  A    between atoms: _442  and  _443
REMARK  176  A    between atoms: _445  and  _447
REMARK  177  A    between atoms: _447  and  _448
REMARK  178  A    between atoms: _447  and  _450
REMARK  179  A    between atoms: _450  and  _451
REMARK  180  A    between atoms: _454  and  _456
REMARK  181  A    between atoms: _456  and  _457
REMARK  182  A    between atoms: _456  and  _459
REMARK  183  A    between atoms: _459  and  _460
REMARK  184  A    between atoms: _460  and  _461
REMARK  185  A    between atoms: _461  and  _462
REMARK  186  A    between atoms: _462  and  _463
REMARK  187  A    between atoms: _467  and  _469
REMARK  188  A    between atoms: _469  and  _470
REMARK  189  A    between atoms: _469  and  _472
REMARK  190  A    between atoms: _475  and  _477
REMARK  191  A    between atoms: _477  and  _478
REMARK  192  A    between atoms: _481  and  _483
REMARK  193  A    between atoms: _483  and  _484
REMARK  194  A    between atoms: _483  and  _486
REMARK  195  A    between atoms: _486  and  _487
REMARK  196  A    between atoms: _490  and  _492
REMARK  197  A    between atoms: _492  and  _493
REMARK  198  A    between atoms: _492  and  _495
REMARK  199  A    between atoms: _495  and  _496
REMARK  200  A    between atoms: _502  and  _503
REMARK  201  A    between atoms: _508  and  _510
REMARK  202  A    between atoms: _510  and  _511
REMARK  203  A    between atoms: _510  and  _513
REMARK  204  A    between atoms: _513  and  _514
REMARK  205  A    between atoms: _520  and  _522
REMARK  206  A    between atoms: _522  and  _523
REMARK  207  A    between atoms: _522  and  _525
REMARK  208  A    between atoms: _525  and  _526
REMARK  209  A    between atoms: _529  and  _531
REMARK  210  A    between atoms: _531  and  _532
REMARK  211  A    between atoms: _534  and  _536
REMARK  212  A    between atoms: _536  and  _537
REMARK  213  A    between atoms: _536  and  _539
REMARK  214  A    between atoms: _539  and  _540
REMARK  215  A    between atoms: _543  and  _545
REMARK  216  A    between atoms: _545  and  _546
REMARK  217  A    between atoms: _545  and  _548
REMARK  218  A    between atoms: _548  and  _549
REMARK  219  A    between atoms: _555  and  _557
REMARK  220  A    between atoms: _557  and  _558
REMARK  221  A    between atoms: _557  and  _560
REMARK  222  A    between atoms: _560  and  _561
REMARK  223  A    between atoms: _561  and  _562
REMARK  224  A    between atoms: _567  and  _569
REMARK  225  A    between atoms: _569  and  _570
REMARK  226  A    between atoms: _569  and  _572
REMARK  227  A    between atoms: _572  and  _573
REMARK  228  A    between atoms: _576  and  _578
REMARK  229  A    between atoms: _578  and  _579
REMARK  230  A    between atoms: _578  and  _581
REMARK  231  A    between atoms: _581  and  _582
REMARK  232  A    between atoms: _584  and  _586
REMARK  233  A    between atoms: _586  and  _587
REMARK  234  A    between atoms: _586  and  _589
REMARK  235  A    between atoms: _589  and  _590
REMARK  236  A    between atoms: _596  and  _598
REMARK  237  A    between atoms: _598  and  _599
REMARK  238  A    between atoms: _598  and  _601
REMARK  239  A    between atoms: _601  and  _602
REMARK  240  A    between atoms: _607  and  _608
REMARK  241  A    between atoms: _610  and  _612
REMARK  242  A    between atoms: _612  and  _613
REMARK  243  A    between atoms: _612  and  _615
REMARK  244  A    between atoms: _615  and  _616
REMARK                            x       y       z     vdW  Elec       q    Type
REMARK                         _______ _______ _______ _____ _____    ______ ____
ROOT
ATOM      1  O   HOH     1     -15.850   2.835  49.914  0.00  0.00    +0.000 OA
ENDROOT
TORSDOF 0
REMARK  Name = ../refined-set-2016/4ido/4ido_pocket.pdb
REMARK  244 active torsions:
REMARK  status: ('A' for Active; 'I' for Inactive)
REMARK    1  A    between atoms: _1  and  _3
REMARK    2  A    between atoms: _3  and  _4
REMARK    3  A    between atoms: _3  and  _6
REMARK    4  A    between atoms: _9  and  _11
REMARK    5  A    between atoms: _11  and  _12
REMARK    6  A    between atoms: _15  and  _17
REMARK    7  A    between atoms: _17  and  _18
REMARK    8  A    between atoms: _20  and  _22
REMARK    9  A    between atoms: _22  and  _23
REMARK   10  A    between atoms: _26  and  _28
REMARK   11  A    between atoms: _28  and  _29
REMARK   12  A    between atoms: _28  and  _31
REMARK   13  A    between atoms: _31  and  _32
REMARK   14  A    between atoms: _38  and  _40
REMARK   15  A    between atoms: _40  and  _41
REMARK   16  A    between atoms: _40  and  _43
REMARK   17  A    between atoms: _43  and  _44
REMARK   18  A    between atoms: _44  and  _45
REMARK   19  A    between atoms: _45  and  _46
REMARK   20  A    between atoms: _55  and  _57
REMARK   21  A    between atoms: _57  and  _58
REMARK   22  A    between atoms: _57  and  _60
REMARK   23  A    between atoms: _60  and  _61
REMARK   24  A    between atoms: _61  and  _62
REMARK   25  A    between atoms: _62  and  _63
REMARK   26  A    between atoms: _63  and  _64
REMARK   27  A    between atoms: _68  and  _70
REMARK   28  A    between atoms: _70  and  _71
REMARK   29  A    between atoms: _73  and  _75
REMARK   30  A    between atoms: _75  and  _76
REMARK   31  A    between atoms: _75  and  _78
REMARK   32  A    between atoms: _78  and  _79
REMARK   33  A    between atoms: _79  and  _80
REMARK   34  A    between atoms: _80  and  _81
REMARK   35  A    between atoms: _81  and  _82
REMARK   36  A    between atoms: _86  and  _88
REMARK   37  A    between atoms: _88  and  _89
REMARK   38  A    between atoms: _88  and  _91
REMARK   39  A    between atoms: _91  and  _92
REMARK   40  A    between atoms: _94  and  _96
REMARK   41  A    between atoms: _96  and  _97
REMARK   42  A    between atoms: _96  and  _99
REMARK   43  A    between atoms: _99  and  _100
REMARK   44  A    between atoms: _106  and  _108
REMARK   45  A    between atoms: _108  and  _109
REMARK   46  A    between atoms: _108  and  _111
REMARK   47  A    between atoms: _111  and  _112
REMARK   48  A    between atoms: _115  and  _117
REMARK   49  A    between atoms: _117  and  _118
REMARK   50  A    between atoms: _117  and  _120
REMARK   51  A    between atoms: _120  and  _121
REMARK   52  A    between atoms: _121  and  _122
REMARK   53  A    between atoms: _124  and  _126
REMARK   54  A    between atoms: _126  and  _127
REMARK   55  A    between atoms: _126  and  _129
REMARK   56  A    between atoms: _129  and  _130
REMARK   57  A    between atoms: _133  and  _135
REMARK   58  A    between atoms: _135  and  _136
REMARK   59  A    between atoms: _135  and  _138
REMARK   60  A    between atoms: _138  and  _139
REMARK   61  A    between atoms: _145  and  _147
REMARK   62  A    between atoms: _147  and  _148
REMARK   63  A    between atoms: _147  and  _150
REMARK   64  A    between atoms: _150  and  _151
REMARK   65  A    between atoms: _154  and  _156
REMARK   66  A    between atoms: _156  and  _157
REMARK   67  A    between atoms: _156  and  _159
REMARK   68  A    between atoms: _159  and  _160
REMARK   69  A    between atoms: _166  and  _168
REMARK   70  A    between atoms: _168  and  _169
REMARK   71  A    between atoms: _168  and  _171
REMARK   72  A    between atoms: _171  and  _172
REMARK   73  A    between atoms: _174  and  _176
REMARK   74  A    between atoms: _176  and  _177
REMARK   75  A    between atoms: _176  and  _179
REMARK   76  A    between atoms: _179  and  _180
REMARK   77  A    between atoms: _190  and  _192
REMARK   78  A    between atoms: _192  and  _193
REMARK   79  A    between atoms: _192  and  _195
REMARK   80  A    between atoms: _195  and  _196
REMARK   81  A    between atoms: _196  and  _197
REMARK   82  A    between atoms: _197  and  _198
REMARK   83  A    between atoms: _207  and  _209
REMARK   84  A    between atoms: _209  and  _210
REMARK   85  A    between atoms: _212  and  _214
REMARK   86  A    between atoms: _214  and  _215
REMARK   87  A    between atoms: _217  and  _219
REMARK   88  A    between atoms: _219  and  _220
REMARK   89  A    between atoms: _219  and  _222
REMARK   90  A    between atoms: _222  and  _223
REMARK   91  A    between atoms: _223  and  _224
REMARK   92  A    between atoms: _227  and  _229
REMARK   93  A    between atoms: _229  and  _230
REMARK   94  A    between atoms: _229  and  _232
REMARK   95  A    between atoms: _232  and  _233
REMARK   96  A    between atoms: _233  and  _234
REMARK   97  A    between atoms: _234  and  _235
REMARK   98  A    between atoms: _244  and  _246
REMARK   99  A    between atoms: _246  and  _247
REMARK  100  A    between atoms: _246  and  _249
REMARK  101  A    between atoms: _249  and  _250
REMARK  102  A    between atoms: _250  and  _251
REMARK  103  A    between atoms: _254  and  _256
REMARK  104  A    between atoms: _256  and  _257
REMARK  105  A    between atoms: _256  and  _259
REMARK  106  A    between atoms: _259  and  _260
REMARK  107  A    between atoms: _263  and  _265
REMARK  108  A    between atoms: _265  and  _266
REMARK  109  A    between atoms: _265  and  _268
REMARK  110  A    between atoms: _268  and  _269
REMARK  111  A    between atoms: _272  and  _274
REMARK  112  A    between atoms: _274  and  _275
REMARK  113  A    between atoms: _274  and  _277
REMARK  114  A    between atoms: _277  and  _278
REMARK  115  A    between atoms: _281  and  _283
REMARK  116  A    between atoms: _283  and  _284
REMARK  117  A    between atoms: _283  and  _286
REMARK  118  A    between atoms: _286  and  _287
REMARK  119  A    between atoms: _287  and  _288
REMARK  120  A    between atoms: _293  and  _295
REMARK  121  A    between atoms: _295  and  _296
REMARK  122  A    between atoms: _298  and  _300
REMARK  123  A    between atoms: _300  and  _301
REMARK  124  A    between atoms: _300  and  _303
REMARK  125  A    between atoms: _303  and  _304
REMARK  126  A    between atoms: _307  and  _309
REMARK  127  A    between atoms: _309  and  _310
REMARK  128  A    between atoms: _309  and  _312
REMARK  129  A    between atoms: _312  and  _313
REMARK  130  A    between atoms: _318  and  _320
REMARK  131  A    between atoms: _320  and  _321
REMARK  132  A    between atoms: _320  and  _323
REMARK  133  A    between atoms: _323  and  _324
REMARK  134  A    between atoms: _327  and  _329
REMARK  135  A    between atoms: _329  and  _330
REMARK  136  A    between atoms: _329  and  _332
REMARK  137  A    between atoms: _332  and  _333
REMARK  138  A    between atoms: _335  and  _337
REMARK  139  A    between atoms: _337  and  _338
REMARK  140  A    between atoms: _337  and  _340
REMARK  141  A    between atoms: _340  and  _341
REMARK  142  A    between atoms: _341  and  _342
REMARK  143  A    between atoms: _347  and  _349
REMARK  144  A    between atoms: _349  and  _350
REMARK  145  A    between atoms: _349  and  _352
REMARK  146  A    between atoms: _352  and  _353
REMARK  147  A    between atoms: _356  and  _358
REMARK  148  A    between atoms: _358  and  _359
REMARK  149  A    between atoms: _358  and  _361
REMARK  150  A    between atoms: _364  and  _366
REMARK  151  A    between atoms: _366  and  _367
REMARK  152  A    between atoms: _366  and  _369
REMARK  153  A    between atoms: _369  and  _370
REMARK  154  A    between atoms: _370  and  _371
REMARK  155  A    between atoms: _371  and  _372
REMARK  156  A    between atoms: _381  and  _383
REMARK  157  A    between atoms: _383  and  _384
REMARK  158  A    between atoms: _383  and  _386
REMARK  159  A    between atoms: _386  and  _387
REMARK  160  A    between atoms: _390  and  _392
REMARK  161  A    between atoms: _392  and  _393
REMARK  162  A    between atoms: _392  and  _395
REMARK  163  A    between atoms: _395  and  _396
REMARK  164  A    between atoms: _406  and  _408
REMARK  165  A    between atoms: _408  and  _409
REMARK  166  A    between atoms: _408  and  _411
REMARK  167  A    between atoms: _411  and  _412
REMARK  168  A    between atoms: _416  and  _417
REMARK  169  A    between atoms: _422  and  _424
REMARK  170  A    between atoms: _424  and  _425
REMARK  171  A    between atoms: _424  and  _427
REMARK  172  A    between atoms: _427  and  _428
REMARK  173  A    between atoms: _434  and  _435
REMARK  174  A    between atoms: _440  and  _442
REMARK  175  A    between atoms: _442  and  _443
REMARK  176  A    between atoms: _445  and  _447
REMARK  177  A    between atoms: _447  and  _448
REMARK  178  A    between atoms: _447  and  _450
REMARK  179  A    between atoms: _450  and  _451
REMARK  180  A    between atoms: _454  and  _456
REMARK  181  A    between atoms: _456  and  _457
REMARK  182  A    between atoms: _456  and  _459
REMARK  183  A    between atoms: _459  and  _460
REMARK  184  A    between atoms: _460  and  _461
REMARK  185  A    between atoms: _461  and  _462
REMARK  186  A    between atoms: _462  and  _463
REMARK  187  A    between atoms: _467  and  _469
REMARK  188  A    between atoms: _469  and  _470
REMARK  189  A    between atoms: _469  and  _472
REMARK  190  A    between atoms: _475  and  _477
REMARK  191  A    between atoms: _477  and  _478
REMARK  192  A    between atoms: _481  and  _483
REMARK  193  A    between atoms: _483  and  _484
REMARK  194  A    between atoms: _483  and  _486
REMARK  195  A    between atoms: _486  and  _487
REMARK  196  A    between atoms: _490  and  _492
REMARK  197  A    between atoms: _492  and  _493
REMARK  198  A    between atoms: _492  and  _495
REMARK  199  A    between atoms: _495  and  _496
REMARK  200  A    between atoms: _502  and  _503
REMARK  201  A    between atoms: _508  and  _510
REMARK  202  A    between atoms: _510  and  _511
REMARK  203  A    between atoms: _510  and  _513
REMARK  204  A    between atoms: _513  and  _514
REMARK  205  A    between atoms: _520  and  _522
REMARK  206  A    between atoms: _522  and  _523
REMARK  207  A    between atoms: _522  and  _525
REMARK  208  A    between atoms: _525  and  _526
REMARK  209  A    between atoms: _529  and  _531
REMARK  210  A    between atoms: _531  and  _532
REMARK  211  A    between atoms: _534  and  _536
REMARK  212  A    between atoms: _536  and  _537
REMARK  213  A    between atoms: _536  and  _539
REMARK  214  A    between atoms: _539  and  _540
REMARK  215  A    between atoms: _543  and  _545
REMARK  216  A    between atoms: _545  and  _546
REMARK  217  A    between atoms: _545  and  _548
REMARK  218  A    between atoms: _548  and  _549
REMARK  219  A    between atoms: _555  and  _557
REMARK  220  A    between atoms: _557  and  _558
REMARK  221  A    between atoms: _557  and  _560
REMARK  222  A    between atoms: _560  and  _561
REMARK  223  A    between atoms: _561  and  _562
REMARK  224  A    between atoms: _567  and  _569
REMARK  225  A    between atoms: _569  and  _570
REMARK  226  A    between atoms: _569  and  _572
REMARK  227  A    between atoms: _572  and  _573
REMARK  228  A    between atoms: _576  and  _578
REMARK  229  A    between atoms: _578  and  _579
REMARK  230  A    between atoms: _578  and  _581
REMARK  231  A    between atoms: _581  and  _582
REMARK  232  A    between atoms: _584  and  _586
REMARK  233  A    between atoms: _586  and  _587
REMARK  234  A    between atoms: _586  and  _589
REMARK  235  A    between atoms: _589  and  _590
REMARK  236  A    between atoms: _596  and  _598
REMARK  237  A    between atoms: _598  and  _599
REMARK  238  A    between atoms: _598  and  _601
REMARK  239  A    between atoms: _601  and  _602
REMARK  240  A    between atoms: _607  and  _608
REMARK  241  A    between atoms: _610  and  _612
REMARK  242  A    between atoms: _612  and  _613
REMARK  243  A    between atoms: _612  and  _615
REMARK  244  A    between atoms: _615  and  _616
REMARK                            x       y       z     vdW  Elec       q    Type
REMARK                         _______ _______ _______ _____ _____    ______ ____
ROOT
ATOM      1  O   HOH     1     -26.939   7.858  39.480  0.00  0.00    +0.000 OA
ENDROOT
TORSDOF 0
