REMARK  Name = ../refined-set-2016/2hnx/2hnx_pocket.pdb
REMARK  228 active torsions:
REMARK  status: ('A' for Active; 'I' for Inactive)
REMARK    1  A    between atoms: _1  and  _3
REMARK    2  A    between atoms: _3  and  _4
REMARK    3  A    between atoms: _3  and  _6
REMARK    4  A    between atoms: _6  and  _7
REMARK    5  A    between atoms: _10  and  _12
REMARK    6  A    between atoms: _12  and  _13
REMARK    7  A    between atoms: _12  and  _15
REMARK    8  A    between atoms: _15  and  _16
REMARK    9  A    between atoms: _18  and  _20
REMARK   10  A    between atoms: _20  and  _21
REMARK   11  A    between atoms: _20  and  _23
REMARK   12  A    between atoms: _23  and  _24
REMARK   13  A    between atoms: _26  and  _28
REMARK   14  A    between atoms: _28  and  _29
REMARK   15  A    between atoms: _28  and  _31
REMARK   16  A    between atoms: _31  and  _32
REMARK   17  A    between atoms: _38  and  _40
REMARK   18  A    between atoms: _40  and  _41
REMARK   19  A    between atoms: _40  and  _43
REMARK   20  A    between atoms: _43  and  _44
REMARK   21  A    between atoms: _49  and  _50
REMARK   22  A    between atoms: _52  and  _54
REMARK   23  A    between atoms: _54  and  _55
REMARK   24  A    between atoms: _54  and  _57
REMARK   25  A    between atoms: _57  and  _58
REMARK   26  A    between atoms: _58  and  _59
REMARK   27  A    between atoms: _61  and  _63
REMARK   28  A    between atoms: _63  and  _64
REMARK   29  A    between atoms: _63  and  _66
REMARK   30  A    between atoms: _66  and  _67
REMARK   31  A    between atoms: _67  and  _68
REMARK   32  A    between atoms: _68  and  _69
REMARK   33  A    between atoms: _69  and  _70
REMARK   34  A    between atoms: _74  and  _76
REMARK   35  A    between atoms: _76  and  _77
REMARK   36  A    between atoms: _76  and  _79
REMARK   37  A    between atoms: _82  and  _84
REMARK   38  A    between atoms: _84  and  _85
REMARK   39  A    between atoms: _84  and  _87
REMARK   40  A    between atoms: _90  and  _92
REMARK   41  A    between atoms: _92  and  _93
REMARK   42  A    between atoms: _95  and  _97
REMARK   43  A    between atoms: _97  and  _98
REMARK   44  A    between atoms: _97  and  _100
REMARK   45  A    between atoms: _100  and  _101
REMARK   46  A    between atoms: _104  and  _106
REMARK   47  A    between atoms: _106  and  _107
REMARK   48  A    between atoms: _106  and  _109
REMARK   49  A    between atoms: _109  and  _110
REMARK   50  A    between atoms: _110  and  _111
REMARK   51  A    between atoms: _111  and  _112
REMARK   52  A    between atoms: _121  and  _123
REMARK   53  A    between atoms: _123  and  _124
REMARK   54  A    between atoms: _123  and  _126
REMARK   55  A    between atoms: _129  and  _131
REMARK   56  A    between atoms: _131  and  _132
REMARK   57  A    between atoms: _135  and  _137
REMARK   58  A    between atoms: _137  and  _138
REMARK   59  A    between atoms: _140  and  _142
REMARK   60  A    between atoms: _142  and  _143
REMARK   61  A    between atoms: _142  and  _145
REMARK   62  A    between atoms: _145  and  _146
REMARK   63  A    between atoms: _146  and  _147
REMARK   64  A    between atoms: _149  and  _151
REMARK   65  A    between atoms: _151  and  _152
REMARK   66  A    between atoms: _155  and  _157
REMARK   67  A    between atoms: _157  and  _158
REMARK   68  A    between atoms: _157  and  _160
REMARK   69  A    between atoms: _160  and  _161
REMARK   70  A    between atoms: _161  and  _162
REMARK   71  A    between atoms: _162  and  _163
REMARK   72  A    between atoms: _163  and  _164
REMARK   73  A    between atoms: _169  and  _170
REMARK   74  A    between atoms: _175  and  _177
REMARK   75  A    between atoms: _177  and  _178
REMARK   76  A    between atoms: _177  and  _180
REMARK   77  A    between atoms: _180  and  _181
REMARK   78  A    between atoms: _186  and  _188
REMARK   79  A    between atoms: _188  and  _189
REMARK   80  A    between atoms: _188  and  _191
REMARK   81  A    between atoms: _191  and  _192
REMARK   82  A    between atoms: _192  and  _193
REMARK   83  A    between atoms: _195  and  _197
REMARK   84  A    between atoms: _197  and  _198
REMARK   85  A    between atoms: _197  and  _200
REMARK   86  A    between atoms: _200  and  _201
REMARK   87  A    between atoms: _204  and  _206
REMARK   88  A    between atoms: _206  and  _207
REMARK   89  A    between atoms: _206  and  _209
REMARK   90  A    between atoms: _209  and  _210
REMARK   91  A    between atoms: _210  and  _211
REMARK   92  A    between atoms: _211  and  _212
REMARK   93  A    between atoms: _212  and  _213
REMARK   94  A    between atoms: _217  and  _219
REMARK   95  A    between atoms: _219  and  _220
REMARK   96  A    between atoms: _219  and  _222
REMARK   97  A    between atoms: _222  and  _223
REMARK   98  A    between atoms: _225  and  _227
REMARK   99  A    between atoms: _227  and  _228
REMARK  100  A    between atoms: _227  and  _230
REMARK  101  A    between atoms: _230  and  _231
REMARK  102  A    between atoms: _231  and  _232
REMARK  103  A    between atoms: _235  and  _237
REMARK  104  A    between atoms: _237  and  _238
REMARK  105  A    between atoms: _237  and  _240
REMARK  106  A    between atoms: _240  and  _241
REMARK  107  A    between atoms: _243  and  _245
REMARK  108  A    between atoms: _245  and  _246
REMARK  109  A    between atoms: _245  and  _248
REMARK  110  A    between atoms: _248  and  _249
REMARK  111  A    between atoms: _252  and  _254
REMARK  112  A    between atoms: _254  and  _255
REMARK  113  A    between atoms: _254  and  _257
REMARK  114  A    between atoms: _257  and  _258
REMARK  115  A    between atoms: _264  and  _266
REMARK  116  A    between atoms: _266  and  _267
REMARK  117  A    between atoms: _266  and  _269
REMARK  118  A    between atoms: _269  and  _270
REMARK  119  A    between atoms: _270  and  _271
REMARK  120  A    between atoms: _271  and  _272
REMARK  121  A    between atoms: _272  and  _273
REMARK  122  A    between atoms: _277  and  _279
REMARK  123  A    between atoms: _279  and  _280
REMARK  124  A    between atoms: _279  and  _282
REMARK  125  A    between atoms: _282  and  _283
REMARK  126  A    between atoms: _288  and  _290
REMARK  127  A    between atoms: _290  and  _291
REMARK  128  A    between atoms: _290  and  _293
REMARK  129  A    between atoms: _293  and  _294
REMARK  130  A    between atoms: _297  and  _299
REMARK  131  A    between atoms: _299  and  _300
REMARK  132  A    between atoms: _299  and  _302
REMARK  133  A    between atoms: _302  and  _303
REMARK  134  A    between atoms: _303  and  _304
REMARK  135  A    between atoms: _307  and  _309
REMARK  136  A    between atoms: _309  and  _310
REMARK  137  A    between atoms: _309  and  _312
REMARK  138  A    between atoms: _312  and  _313
REMARK  139  A    between atoms: _316  and  _318
REMARK  140  A    between atoms: _318  and  _319
REMARK  141  A    between atoms: _322  and  _324
REMARK  142  A    between atoms: _324  and  _325
REMARK  143  A    between atoms: _324  and  _327
REMARK  144  A    between atoms: _327  and  _328
REMARK  145  A    between atoms: _331  and  _333
REMARK  146  A    between atoms: _333  and  _334
REMARK  147  A    between atoms: _333  and  _336
REMARK  148  A    between atoms: _336  and  _337
REMARK  149  A    between atoms: _340  and  _342
REMARK  150  A    between atoms: _342  and  _343
REMARK  151  A    between atoms: _342  and  _345
REMARK  152  A    between atoms: _345  and  _346
REMARK  153  A    between atoms: _346  and  _347
REMARK  154  A    between atoms: _347  and  _348
REMARK  155  A    between atoms: _357  and  _359
REMARK  156  A    between atoms: _359  and  _360
REMARK  157  A    between atoms: _359  and  _362
REMARK  158  A    between atoms: _362  and  _363
REMARK  159  A    between atoms: _368  and  _370
REMARK  160  A    between atoms: _370  and  _371
REMARK  161  A    between atoms: _370  and  _373
REMARK  162  A    between atoms: _373  and  _374
REMARK  163  A    between atoms: _374  and  _375
REMARK  164  A    between atoms: _380  and  _382
REMARK  165  A    between atoms: _382  and  _383
REMARK  166  A    between atoms: _382  and  _385
REMARK  167  A    between atoms: _385  and  _386
REMARK  168  A    between atoms: _389  and  _391
REMARK  169  A    between atoms: _391  and  _392
REMARK  170  A    between atoms: _391  and  _394
REMARK  171  A    between atoms: _394  and  _395
REMARK  172  A    between atoms: _398  and  _400
REMARK  173  A    between atoms: _400  and  _401
REMARK  174  A    between atoms: _400  and  _403
REMARK  175  A    between atoms: _403  and  _404
REMARK  176  A    between atoms: _407  and  _409
REMARK  177  A    between atoms: _409  and  _410
REMARK  178  A    between atoms: _409  and  _412
REMARK  179  A    between atoms: _412  and  _413
REMARK  180  A    between atoms: _413  and  _414
REMARK  181  A    between atoms: _414  and  _415
REMARK  182  A    between atoms: _415  and  _416
REMARK  183  A    between atoms: _420  and  _422
REMARK  184  A    between atoms: _422  and  _423
REMARK  185  A    between atoms: _422  and  _425
REMARK  186  A    between atoms: _425  and  _426
REMARK  187  A    between atoms: _426  and  _427
REMARK  188  A    between atoms: _427  and  _428
REMARK  189  A    between atoms: _437  and  _439
REMARK  190  A    between atoms: _439  and  _440
REMARK  191  A    between atoms: _439  and  _442
REMARK  192  A    between atoms: _442  and  _443
REMARK  193  A    between atoms: _446  and  _448
REMARK  194  A    between atoms: _448  and  _449
REMARK  195  A    between atoms: _448  and  _451
REMARK  196  A    between atoms: _454  and  _456
REMARK  197  A    between atoms: _456  and  _457
REMARK  198  A    between atoms: _456  and  _459
REMARK  199  A    between atoms: _459  and  _460
REMARK  200  A    between atoms: _460  and  _461
REMARK  201  A    between atoms: _464  and  _466
REMARK  202  A    between atoms: _466  and  _467
REMARK  203  A    between atoms: _466  and  _469
REMARK  204  A    between atoms: _471  and  _473
REMARK  205  A    between atoms: _473  and  _474
REMARK  206  A    between atoms: _473  and  _476
REMARK  207  A    between atoms: _479  and  _481
REMARK  208  A    between atoms: _481  and  _482
REMARK  209  A    between atoms: _481  and  _484
REMARK  210  A    between atoms: _484  and  _485
REMARK  211  A    between atoms: _487  and  _489
REMARK  212  A    between atoms: _489  and  _490
REMARK  213  A    between atoms: _489  and  _492
REMARK  214  A    between atoms: _492  and  _493
REMARK  215  A    between atoms: _496  and  _498
REMARK  216  A    between atoms: _498  and  _499
REMARK  217  A    between atoms: _498  and  _501
REMARK  218  A    between atoms: _501  and  _502
REMARK  219  A    between atoms: _502  and  _503
REMARK  220  A    between atoms: _503  and  _504
REMARK  221  A    between atoms: _513  and  _515
REMARK  222  A    between atoms: _515  and  _516
REMARK  223  A    between atoms: _515  and  _518
REMARK  224  A    between atoms: _521  and  _523
REMARK  225  A    between atoms: _523  and  _524
REMARK  226  A    between atoms: _523  and  _526
REMARK  227  A    between atoms: _526  and  _527
REMARK  228  A    between atoms: _532  and  _533
REMARK                            x       y       z     vdW  Elec       q    Type
REMARK                         _______ _______ _______ _____ _____    ______ ____
ROOT
ATOM      1  CA  LEU A   1      28.804  54.325  10.666  0.00  0.00    +0.133 C 
ENDROOT
BRANCH   1   2
ATOM      2  N   LEU A   1      29.869  53.717   9.864  0.00  0.00    -0.239 NA
ATOM      3  H   LEU A   1      30.712  53.337  10.339  0.00  0.00    +0.142 HD
ENDBRANCH   1   2
BRANCH   1   4
ATOM      4  C   LEU A   1      28.744  55.814  10.380  0.00  0.00    +0.224 C 
ATOM      5  O   LEU A   1      29.775  56.490  10.492  0.00  0.00    -0.287 OA
ENDBRANCH   1   4
BRANCH   1   6
ATOM      6  CB  LEU A   1      29.063  54.128  12.164  0.00  0.00    +0.025 C 
BRANCH   6   7
ATOM      7  CG  LEU A   1      27.944  54.650  13.080  0.00  0.00    +0.002 C 
ATOM      8  CD2 LEU A   1      28.394  54.718  14.522  0.00  0.00    +0.000 C 
ATOM      9  CD1 LEU A   1      26.694  53.809  12.950  0.00  0.00    +0.000 C 
ENDBRANCH   6   7
ENDBRANCH   1   6
TORSDOF 4
REMARK  Name = ../refined-set-2016/2hnx/2hnx_pocket.pdb
REMARK  228 active torsions:
REMARK  status: ('A' for Active; 'I' for Inactive)
REMARK    1  A    between atoms: _1  and  _3
REMARK    2  A    between atoms: _3  and  _4
REMARK    3  A    between atoms: _3  and  _6
REMARK    4  A    between atoms: _6  and  _7
REMARK    5  A    between atoms: _10  and  _12
REMARK    6  A    between atoms: _12  and  _13
REMARK    7  A    between atoms: _12  and  _15
REMARK    8  A    between atoms: _15  and  _16
REMARK    9  A    between atoms: _18  and  _20
REMARK   10  A    between atoms: _20  and  _21
REMARK   11  A    between atoms: _20  and  _23
REMARK   12  A    between atoms: _23  and  _24
REMARK   13  A    between atoms: _26  and  _28
REMARK   14  A    between atoms: _28  and  _29
REMARK   15  A    between atoms: _28  and  _31
REMARK   16  A    between atoms: _31  and  _32
REMARK   17  A    between atoms: _38  and  _40
REMARK   18  A    between atoms: _40  and  _41
REMARK   19  A    between atoms: _40  and  _43
REMARK   20  A    between atoms: _43  and  _44
REMARK   21  A    between atoms: _49  and  _50
REMARK   22  A    between atoms: _52  and  _54
REMARK   23  A    between atoms: _54  and  _55
REMARK   24  A    between atoms: _54  and  _57
REMARK   25  A    between atoms: _57  and  _58
REMARK   26  A    between atoms: _58  and  _59
REMARK   27  A    between atoms: _61  and  _63
REMARK   28  A    between atoms: _63  and  _64
REMARK   29  A    between atoms: _63  and  _66
REMARK   30  A    between atoms: _66  and  _67
REMARK   31  A    between atoms: _67  and  _68
REMARK   32  A    between atoms: _68  and  _69
REMARK   33  A    between atoms: _69  and  _70
REMARK   34  A    between atoms: _74  and  _76
REMARK   35  A    between atoms: _76  and  _77
REMARK   36  A    between atoms: _76  and  _79
REMARK   37  A    between atoms: _82  and  _84
REMARK   38  A    between atoms: _84  and  _85
REMARK   39  A    between atoms: _84  and  _87
REMARK   40  A    between atoms: _90  and  _92
REMARK   41  A    between atoms: _92  and  _93
REMARK   42  A    between atoms: _95  and  _97
REMARK   43  A    between atoms: _97  and  _98
REMARK   44  A    between atoms: _97  and  _100
REMARK   45  A    between atoms: _100  and  _101
REMARK   46  A    between atoms: _104  and  _106
REMARK   47  A    between atoms: _106  and  _107
REMARK   48  A    between atoms: _106  and  _109
REMARK   49  A    between atoms: _109  and  _110
REMARK   50  A    between atoms: _110  and  _111
REMARK   51  A    between atoms: _111  and  _112
REMARK   52  A    between atoms: _121  and  _123
REMARK   53  A    between atoms: _123  and  _124
REMARK   54  A    between atoms: _123  and  _126
REMARK   55  A    between atoms: _129  and  _131
REMARK   56  A    between atoms: _131  and  _132
REMARK   57  A    between atoms: _135  and  _137
REMARK   58  A    between atoms: _137  and  _138
REMARK   59  A    between atoms: _140  and  _142
REMARK   60  A    between atoms: _142  and  _143
REMARK   61  A    between atoms: _142  and  _145
REMARK   62  A    between atoms: _145  and  _146
REMARK   63  A    between atoms: _146  and  _147
REMARK   64  A    between atoms: _149  and  _151
REMARK   65  A    between atoms: _151  and  _152
REMARK   66  A    between atoms: _155  and  _157
REMARK   67  A    between atoms: _157  and  _158
REMARK   68  A    between atoms: _157  and  _160
REMARK   69  A    between atoms: _160  and  _161
REMARK   70  A    between atoms: _161  and  _162
REMARK   71  A    between atoms: _162  and  _163
REMARK   72  A    between atoms: _163  and  _164
REMARK   73  A    between atoms: _169  and  _170
REMARK   74  A    between atoms: _175  and  _177
REMARK   75  A    between atoms: _177  and  _178
REMARK   76  A    between atoms: _177  and  _180
REMARK   77  A    between atoms: _180  and  _181
REMARK   78  A    between atoms: _186  and  _188
REMARK   79  A    between atoms: _188  and  _189
REMARK   80  A    between atoms: _188  and  _191
REMARK   81  A    between atoms: _191  and  _192
REMARK   82  A    between atoms: _192  and  _193
REMARK   83  A    between atoms: _195  and  _197
REMARK   84  A    between atoms: _197  and  _198
REMARK   85  A    between atoms: _197  and  _200
REMARK   86  A    between atoms: _200  and  _201
REMARK   87  A    between atoms: _204  and  _206
REMARK   88  A    between atoms: _206  and  _207
REMARK   89  A    between atoms: _206  and  _209
REMARK   90  A    between atoms: _209  and  _210
REMARK   91  A    between atoms: _210  and  _211
REMARK   92  A    between atoms: _211  and  _212
REMARK   93  A    between atoms: _212  and  _213
REMARK   94  A    between atoms: _217  and  _219
REMARK   95  A    between atoms: _219  and  _220
REMARK   96  A    between atoms: _219  and  _222
REMARK   97  A    between atoms: _222  and  _223
REMARK   98  A    between atoms: _225  and  _227
REMARK   99  A    between atoms: _227  and  _228
REMARK  100  A    between atoms: _227  and  _230
REMARK  101  A    between atoms: _230  and  _231
REMARK  102  A    between atoms: _231  and  _232
REMARK  103  A    between atoms: _235  and  _237
REMARK  104  A    between atoms: _237  and  _238
REMARK  105  A    between atoms: _237  and  _240
REMARK  106  A    between atoms: _240  and  _241
REMARK  107  A    between atoms: _243  and  _245
REMARK  108  A    between atoms: _245  and  _246
REMARK  109  A    between atoms: _245  and  _248
REMARK  110  A    between atoms: _248  and  _249
REMARK  111  A    between atoms: _252  and  _254
REMARK  112  A    between atoms: _254  and  _255
REMARK  113  A    between atoms: _254  and  _257
REMARK  114  A    between atoms: _257  and  _258
REMARK  115  A    between atoms: _264  and  _266
REMARK  116  A    between atoms: _266  and  _267
REMARK  117  A    between atoms: _266  and  _269
REMARK  118  A    between atoms: _269  and  _270
REMARK  119  A    between atoms: _270  and  _271
REMARK  120  A    between atoms: _271  and  _272
REMARK  121  A    between atoms: _272  and  _273
REMARK  122  A    between atoms: _277  and  _279
REMARK  123  A    between atoms: _279  and  _280
REMARK  124  A    between atoms: _279  and  _282
REMARK  125  A    between atoms: _282  and  _283
REMARK  126  A    between atoms: _288  and  _290
REMARK  127  A    between atoms: _290  and  _291
REMARK  128  A    between atoms: _290  and  _293
REMARK  129  A    between atoms: _293  and  _294
REMARK  130  A    between atoms: _297  and  _299
REMARK  131  A    between atoms: _299  and  _300
REMARK  132  A    between atoms: _299  and  _302
REMARK  133  A    between atoms: _302  and  _303
REMARK  134  A    between atoms: _303  and  _304
REMARK  135  A    between atoms: _307  and  _309
REMARK  136  A    between atoms: _309  and  _310
REMARK  137  A    between atoms: _309  and  _312
REMARK  138  A    between atoms: _312  and  _313
REMARK  139  A    between atoms: _316  and  _318
REMARK  140  A    between atoms: _318  and  _319
REMARK  141  A    between atoms: _322  and  _324
REMARK  142  A    between atoms: _324  and  _325
REMARK  143  A    between atoms: _324  and  _327
REMARK  144  A    between atoms: _327  and  _328
REMARK  145  A    between atoms: _331  and  _333
REMARK  146  A    between atoms: _333  and  _334
REMARK  147  A    between atoms: _333  and  _336
REMARK  148  A    between atoms: _336  and  _337
REMARK  149  A    between atoms: _340  and  _342
REMARK  150  A    between atoms: _342  and  _343
REMARK  151  A    between atoms: _342  and  _345
REMARK  152  A    between atoms: _345  and  _346
REMARK  153  A    between atoms: _346  and  _347
REMARK  154  A    between atoms: _347  and  _348
REMARK  155  A    between atoms: _357  and  _359
REMARK  156  A    between atoms: _359  and  _360
REMARK  157  A    between atoms: _359  and  _362
REMARK  158  A    between atoms: _362  and  _363
REMARK  159  A    between atoms: _368  and  _370
REMARK  160  A    between atoms: _370  and  _371
REMARK  161  A    between atoms: _370  and  _373
REMARK  162  A    between atoms: _373  and  _374
REMARK  163  A    between atoms: _374  and  _375
REMARK  164  A    between atoms: _380  and  _382
REMARK  165  A    between atoms: _382  and  _383
REMARK  166  A    between atoms: _382  and  _385
REMARK  167  A    between atoms: _385  and  _386
REMARK  168  A    between atoms: _389  and  _391
REMARK  169  A    between atoms: _391  and  _392
REMARK  170  A    between atoms: _391  and  _394
REMARK  171  A    between atoms: _394  and  _395
REMARK  172  A    between atoms: _398  and  _400
REMARK  173  A    between atoms: _400  and  _401
REMARK  174  A    between atoms: _400  and  _403
REMARK  175  A    between atoms: _403  and  _404
REMARK  176  A    between atoms: _407  and  _409
REMARK  177  A    between atoms: _409  and  _410
REMARK  178  A    between atoms: _409  and  _412
REMARK  179  A    between atoms: _412  and  _413
REMARK  180  A    between atoms: _413  and  _414
REMARK  181  A    between atoms: _414  and  _415
REMARK  182  A    between atoms: _415  and  _416
REMARK  183  A    between atoms: _420  and  _422
REMARK  184  A    between atoms: _422  and  _423
REMARK  185  A    between atoms: _422  and  _425
REMARK  186  A    between atoms: _425  and  _426
REMARK  187  A    between atoms: _426  and  _427
REMARK  188  A    between atoms: _427  and  _428
REMARK  189  A    between atoms: _437  and  _439
REMARK  190  A    between atoms: _439  and  _440
REMARK  191  A    between atoms: _439  and  _442
REMARK  192  A    between atoms: _442  and  _443
REMARK  193  A    between atoms: _446  and  _448
REMARK  194  A    between atoms: _448  and  _449
REMARK  195  A    between atoms: _448  and  _451
REMARK  196  A    between atoms: _454  and  _456
REMARK  197  A    between atoms: _456  and  _457
REMARK  198  A    between atoms: _456  and  _459
REMARK  199  A    between atoms: _459  and  _460
REMARK  200  A    between atoms: _460  and  _461
REMARK  201  A    between atoms: _464  and  _466
REMARK  202  A    between atoms: _466  and  _467
REMARK  203  A    between atoms: _466  and  _469
REMARK  204  A    between atoms: _471  and  _473
REMARK  205  A    between atoms: _473  and  _474
REMARK  206  A    between atoms: _473  and  _476
REMARK  207  A    between atoms: _479  and  _481
REMARK  208  A    between atoms: _481  and  _482
REMARK  209  A    between atoms: _481  and  _484
REMARK  210  A    between atoms: _484  and  _485
REMARK  211  A    between atoms: _487  and  _489
REMARK  212  A    between atoms: _489  and  _490
REMARK  213  A    between atoms: _489  and  _492
REMARK  214  A    between atoms: _492  and  _493
REMARK  215  A    between atoms: _496  and  _498
REMARK  216  A    between atoms: _498  and  _499
REMARK  217  A    between atoms: _498  and  _501
REMARK  218  A    between atoms: _501  and  _502
REMARK  219  A    between atoms: _502  and  _503
REMARK  220  A    between atoms: _503  and  _504
REMARK  221  A    between atoms: _513  and  _515
REMARK  222  A    between atoms: _515  and  _516
REMARK  223  A    between atoms: _515  and  _518
REMARK  224  A    between atoms: _521  and  _523
REMARK  225  A    between atoms: _523  and  _524
REMARK  226  A    between atoms: _523  and  _526
REMARK  227  A    between atoms: _526  and  _527
REMARK  228  A    between atoms: _532  and  _533
REMARK                            x       y       z     vdW  Elec       q    Type
REMARK                         _______ _______ _______ _____ _____    ______ ____
ROOT
ATOM      1  C   SER A   1      24.244  57.338  13.432  0.00  0.00    +0.241 C 
ATOM      2  N   SER A   2      23.984  57.827  14.639  0.00  0.00    -0.296 N 
ATOM      3  H   SER A   2      24.113  58.845  14.806  0.00  0.00    +0.150 HD
ATOM      4  O   SER A   1      24.126  56.150  13.137  0.00  0.00    -0.274 OA
ENDROOT
BRANCH   1   5
ATOM      5  CA  SER A   1      24.720  58.357  12.409  0.00  0.00    +0.174 C 
BRANCH   5   6
ATOM      6  N   SER A   1      25.575  57.751  11.394  0.00  0.00    -0.236 NA
ATOM      7  H   SER A   1      25.478  56.740  11.168  0.00  0.00    +0.142 HD
ENDBRANCH   5   6
BRANCH   5   8
ATOM      8  CB  SER A   1      23.540  59.079  11.769  0.00  0.00    +0.163 C 
BRANCH   8   9
ATOM      9  OG  SER A   1      22.563  58.179  11.357  0.00  0.00    -0.380 OA
ATOM     10  H   SER A   1      22.235  57.669  12.139  0.00  0.00    +0.211 HD
ENDBRANCH   8   9
ENDBRANCH   5   8
ENDBRANCH   1   5
BRANCH   2  11
ATOM     11  CA  SER A   2      23.526  56.989  15.734  0.00  0.00    +0.166 C 
BRANCH  11  12
ATOM     12  CB  SER A   2      22.533  57.796  16.546  0.00  0.00    +0.229 C 
ATOM     13  OG  SER A   2      22.712  59.003  16.749  0.00  0.00    -0.286 OA
ENDBRANCH  11  12
BRANCH  11  14
ATOM     14  C   SER A   2      24.716  56.567  16.597  0.00  0.00    +0.165 C 
BRANCH  14  15
ATOM     15  O   SER A   2      24.318  55.726  17.666  0.00  0.00    -0.380 OA
ATOM     16  H   SER A   2      25.113  55.475  18.200  0.00  0.00    +0.211 HD
ENDBRANCH  14  15
ENDBRANCH  11  14
ENDBRANCH   2  11
TORSDOF 8
REMARK  Name = ../refined-set-2016/2hnx/2hnx_pocket.pdb
REMARK  228 active torsions:
REMARK  status: ('A' for Active; 'I' for Inactive)
REMARK    1  A    between atoms: _1  and  _3
REMARK    2  A    between atoms: _3  and  _4
REMARK    3  A    between atoms: _3  and  _6
REMARK    4  A    between atoms: _6  and  _7
REMARK    5  A    between atoms: _10  and  _12
REMARK    6  A    between atoms: _12  and  _13
REMARK    7  A    between atoms: _12  and  _15
REMARK    8  A    between atoms: _15  and  _16
REMARK    9  A    between atoms: _18  and  _20
REMARK   10  A    between atoms: _20  and  _21
REMARK   11  A    between atoms: _20  and  _23
REMARK   12  A    between atoms: _23  and  _24
REMARK   13  A    between atoms: _26  and  _28
REMARK   14  A    between atoms: _28  and  _29
REMARK   15  A    between atoms: _28  and  _31
REMARK   16  A    between atoms: _31  and  _32
REMARK   17  A    between atoms: _38  and  _40
REMARK   18  A    between atoms: _40  and  _41
REMARK   19  A    between atoms: _40  and  _43
REMARK   20  A    between atoms: _43  and  _44
REMARK   21  A    between atoms: _49  and  _50
REMARK   22  A    between atoms: _52  and  _54
REMARK   23  A    between atoms: _54  and  _55
REMARK   24  A    between atoms: _54  and  _57
REMARK   25  A    between atoms: _57  and  _58
REMARK   26  A    between atoms: _58  and  _59
REMARK   27  A    between atoms: _61  and  _63
REMARK   28  A    between atoms: _63  and  _64
REMARK   29  A    between atoms: _63  and  _66
REMARK   30  A    between atoms: _66  and  _67
REMARK   31  A    between atoms: _67  and  _68
REMARK   32  A    between atoms: _68  and  _69
REMARK   33  A    between atoms: _69  and  _70
REMARK   34  A    between atoms: _74  and  _76
REMARK   35  A    between atoms: _76  and  _77
REMARK   36  A    between atoms: _76  and  _79
REMARK   37  A    between atoms: _82  and  _84
REMARK   38  A    between atoms: _84  and  _85
REMARK   39  A    between atoms: _84  and  _87
REMARK   40  A    between atoms: _90  and  _92
REMARK   41  A    between atoms: _92  and  _93
REMARK   42  A    between atoms: _95  and  _97
REMARK   43  A    between atoms: _97  and  _98
REMARK   44  A    between atoms: _97  and  _100
REMARK   45  A    between atoms: _100  and  _101
REMARK   46  A    between atoms: _104  and  _106
REMARK   47  A    between atoms: _106  and  _107
REMARK   48  A    between atoms: _106  and  _109
REMARK   49  A    between atoms: _109  and  _110
REMARK   50  A    between atoms: _110  and  _111
REMARK   51  A    between atoms: _111  and  _112
REMARK   52  A    between atoms: _121  and  _123
REMARK   53  A    between atoms: _123  and  _124
REMARK   54  A    between atoms: _123  and  _126
REMARK   55  A    between atoms: _129  and  _131
REMARK   56  A    between atoms: _131  and  _132
REMARK   57  A    between atoms: _135  and  _137
REMARK   58  A    between atoms: _137  and  _138
REMARK   59  A    between atoms: _140  and  _142
REMARK   60  A    between atoms: _142  and  _143
REMARK   61  A    between atoms: _142  and  _145
REMARK   62  A    between atoms: _145  and  _146
REMARK   63  A    between atoms: _146  and  _147
REMARK   64  A    between atoms: _149  and  _151
REMARK   65  A    between atoms: _151  and  _152
REMARK   66  A    between atoms: _155  and  _157
REMARK   67  A    between atoms: _157  and  _158
REMARK   68  A    between atoms: _157  and  _160
REMARK   69  A    between atoms: _160  and  _161
REMARK   70  A    between atoms: _161  and  _162
REMARK   71  A    between atoms: _162  and  _163
REMARK   72  A    between atoms: _163  and  _164
REMARK   73  A    between atoms: _169  and  _170
REMARK   74  A    between atoms: _175  and  _177
REMARK   75  A    between atoms: _177  and  _178
REMARK   76  A    between atoms: _177  and  _180
REMARK   77  A    between atoms: _180  and  _181
REMARK   78  A    between atoms: _186  and  _188
REMARK   79  A    between atoms: _188  and  _189
REMARK   80  A    between atoms: _188  and  _191
REMARK   81  A    between atoms: _191  and  _192
REMARK   82  A    between atoms: _192  and  _193
REMARK   83  A    between atoms: _195  and  _197
REMARK   84  A    between atoms: _197  and  _198
REMARK   85  A    between atoms: _197  and  _200
REMARK   86  A    between atoms: _200  and  _201
REMARK   87  A    between atoms: _204  and  _206
REMARK   88  A    between atoms: _206  and  _207
REMARK   89  A    between atoms: _206  and  _209
REMARK   90  A    between atoms: _209  and  _210
REMARK   91  A    between atoms: _210  and  _211
REMARK   92  A    between atoms: _211  and  _212
REMARK   93  A    between atoms: _212  and  _213
REMARK   94  A    between atoms: _217  and  _219
REMARK   95  A    between atoms: _219  and  _220
REMARK   96  A    between atoms: _219  and  _222
REMARK   97  A    between atoms: _222  and  _223
REMARK   98  A    between atoms: _225  and  _227
REMARK   99  A    between atoms: _227  and  _228
REMARK  100  A    between atoms: _227  and  _230
REMARK  101  A    between atoms: _230  and  _231
REMARK  102  A    between atoms: _231  and  _232
REMARK  103  A    between atoms: _235  and  _237
REMARK  104  A    between atoms: _237  and  _238
REMARK  105  A    between atoms: _237  and  _240
REMARK  106  A    between atoms: _240  and  _241
REMARK  107  A    between atoms: _243  and  _245
REMARK  108  A    between atoms: _245  and  _246
REMARK  109  A    between atoms: _245  and  _248
REMARK  110  A    between atoms: _248  and  _249
REMARK  111  A    between atoms: _252  and  _254
REMARK  112  A    between atoms: _254  and  _255
REMARK  113  A    between atoms: _254  and  _257
REMARK  114  A    between atoms: _257  and  _258
REMARK  115  A    between atoms: _264  and  _266
REMARK  116  A    between atoms: _266  and  _267
REMARK  117  A    between atoms: _266  and  _269
REMARK  118  A    between atoms: _269  and  _270
REMARK  119  A    between atoms: _270  and  _271
REMARK  120  A    between atoms: _271  and  _272
REMARK  121  A    between atoms: _272  and  _273
REMARK  122  A    between atoms: _277  and  _279
REMARK  123  A    between atoms: _279  and  _280
REMARK  124  A    between atoms: _279  and  _282
REMARK  125  A    between atoms: _282  and  _283
REMARK  126  A    between atoms: _288  and  _290
REMARK  127  A    between atoms: _290  and  _291
REMARK  128  A    between atoms: _290  and  _293
REMARK  129  A    between atoms: _293  and  _294
REMARK  130  A    between atoms: _297  and  _299
REMARK  131  A    between atoms: _299  and  _300
REMARK  132  A    between atoms: _299  and  _302
REMARK  133  A    between atoms: _302  and  _303
REMARK  134  A    between atoms: _303  and  _304
REMARK  135  A    between atoms: _307  and  _309
REMARK  136  A    between atoms: _309  and  _310
REMARK  137  A    between atoms: _309  and  _312
REMARK  138  A    between atoms: _312  and  _313
REMARK  139  A    between atoms: _316  and  _318
REMARK  140  A    between atoms: _318  and  _319
REMARK  141  A    between atoms: _322  and  _324
REMARK  142  A    between atoms: _324  and  _325
REMARK  143  A    between atoms: _324  and  _327
REMARK  144  A    between atoms: _327  and  _328
REMARK  145  A    between atoms: _331  and  _333
REMARK  146  A    between atoms: _333  and  _334
REMARK  147  A    between atoms: _333  and  _336
REMARK  148  A    between atoms: _336  and  _337
REMARK  149  A    between atoms: _340  and  _342
REMARK  150  A    between atoms: _342  and  _343
REMARK  151  A    between atoms: _342  and  _345
REMARK  152  A    between atoms: _345  and  _346
REMARK  153  A    between atoms: _346  and  _347
REMARK  154  A    between atoms: _347  and  _348
REMARK  155  A    between atoms: _357  and  _359
REMARK  156  A    between atoms: _359  and  _360
REMARK  157  A    between atoms: _359  and  _362
REMARK  158  A    between atoms: _362  and  _363
REMARK  159  A    between atoms: _368  and  _370
REMARK  160  A    between atoms: _370  and  _371
REMARK  161  A    between atoms: _370  and  _373
REMARK  162  A    between atoms: _373  and  _374
REMARK  163  A    between atoms: _374  and  _375
REMARK  164  A    between atoms: _380  and  _382
REMARK  165  A    between atoms: _382  and  _383
REMARK  166  A    between atoms: _382  and  _385
REMARK  167  A    between atoms: _385  and  _386
REMARK  168  A    between atoms: _389  and  _391
REMARK  169  A    between atoms: _391  and  _392
REMARK  170  A    between atoms: _391  and  _394
REMARK  171  A    between atoms: _394  and  _395
REMARK  172  A    between atoms: _398  and  _400
REMARK  173  A    between atoms: _400  and  _401
REMARK  174  A    between atoms: _400  and  _403
REMARK  175  A    between atoms: _403  and  _404
REMARK  176  A    between atoms: _407  and  _409
REMARK  177  A    between atoms: _409  and  _410
REMARK  178  A    between atoms: _409  and  _412
REMARK  179  A    between atoms: _412  and  _413
REMARK  180  A    between atoms: _413  and  _414
REMARK  181  A    between atoms: _414  and  _415
REMARK  182  A    between atoms: _415  and  _416
REMARK  183  A    between atoms: _420  and  _422
REMARK  184  A    between atoms: _422  and  _423
REMARK  185  A    between atoms: _422  and  _425
REMARK  186  A    between atoms: _425  and  _426
REMARK  187  A    between atoms: _426  and  _427
REMARK  188  A    between atoms: _427  and  _428
REMARK  189  A    between atoms: _437  and  _439
REMARK  190  A    between atoms: _439  and  _440
REMARK  191  A    between atoms: _439  and  _442
REMARK  192  A    between atoms: _442  and  _443
REMARK  193  A    between atoms: _446  and  _448
REMARK  194  A    between atoms: _448  and  _449
REMARK  195  A    between atoms: _448  and  _451
REMARK  196  A    between atoms: _454  and  _456
REMARK  197  A    between atoms: _456  and  _457
REMARK  198  A    between atoms: _456  and  _459
REMARK  199  A    between atoms: _459  and  _460
REMARK  200  A    between atoms: _460  and  _461
REMARK  201  A    between atoms: _464  and  _466
REMARK  202  A    between atoms: _466  and  _467
REMARK  203  A    between atoms: _466  and  _469
REMARK  204  A    between atoms: _471  and  _473
REMARK  205  A    between atoms: _473  and  _474
REMARK  206  A    between atoms: _473  and  _476
REMARK  207  A    between atoms: _479  and  _481
REMARK  208  A    between atoms: _481  and  _482
REMARK  209  A    between atoms: _481  and  _484
REMARK  210  A    between atoms: _484  and  _485
REMARK  211  A    between atoms: _487  and  _489
REMARK  212  A    between atoms: _489  and  _490
REMARK  213  A    between atoms: _489  and  _492
REMARK  214  A    between atoms: _492  and  _493
REMARK  215  A    between atoms: _496  and  _498
REMARK  216  A    between atoms: _498  and  _499
REMARK  217  A    between atoms: _498  and  _501
REMARK  218  A    between atoms: _501  and  _502
REMARK  219  A    between atoms: _502  and  _503
REMARK  220  A    between atoms: _503  and  _504
REMARK  221  A    between atoms: _513  and  _515
REMARK  222  A    between atoms: _515  and  _516
REMARK  223  A    between atoms: _515  and  _518
REMARK  224  A    between atoms: _521  and  _523
REMARK  225  A    between atoms: _523  and  _524
REMARK  226  A    between atoms: _523  and  _526
REMARK  227  A    between atoms: _526  and  _527
REMARK  228  A    between atoms: _532  and  _533
REMARK                            x       y       z     vdW  Elec       q    Type
REMARK                         _______ _______ _______ _____ _____    ______ ____
ROOT
ATOM      1  CB  PHE A   1      23.800  54.081  20.516  0.00  0.00    +0.051 C 
ENDROOT
BRANCH   1   2
ATOM      2  CG  PHE A   1      24.577  52.770  20.507  0.00  0.00    -0.020 A 
ATOM      3  CD2 PHE A   1      25.955  52.764  20.742  0.00  0.00    -0.004 A 
ATOM      4  CE2 PHE A   1      26.683  51.562  20.723  0.00  0.00    -0.000 A 
ATOM      5  CZ  PHE A   1      26.030  50.363  20.464  0.00  0.00    -0.000 A 
ATOM      6  CE1 PHE A   1      24.665  50.353  20.207  0.00  0.00    -0.000 A 
ATOM      7  CD1 PHE A   1      23.944  51.558  20.234  0.00  0.00    -0.004 A 
ENDBRANCH   1   2
BRANCH   1   8
ATOM      8  CA  PHE A   1      22.593  54.098  21.461  0.00  0.00    +0.137 C 
BRANCH   8   9
ATOM      9  N   PHE A   1      21.736  55.254  21.189  0.00  0.00    -0.239 NA
ATOM     10  H   PHE A   1      22.085  56.027  20.587  0.00  0.00    +0.142 HD
ENDBRANCH   8   9
BRANCH   8  11
ATOM     11  C   PHE A   1      23.004  54.009  22.928  0.00  0.00    +0.224 C 
ATOM     12  O   PHE A   1      23.063  52.913  23.475  0.00  0.00    -0.287 OA
ENDBRANCH   8  11
ENDBRANCH   1   8
TORSDOF 4
REMARK  Name = ../refined-set-2016/2hnx/2hnx_pocket.pdb
REMARK  228 active torsions:
REMARK  status: ('A' for Active; 'I' for Inactive)
REMARK    1  A    between atoms: _1  and  _3
REMARK    2  A    between atoms: _3  and  _4
REMARK    3  A    between atoms: _3  and  _6
REMARK    4  A    between atoms: _6  and  _7
REMARK    5  A    between atoms: _10  and  _12
REMARK    6  A    between atoms: _12  and  _13
REMARK    7  A    between atoms: _12  and  _15
REMARK    8  A    between atoms: _15  and  _16
REMARK    9  A    between atoms: _18  and  _20
REMARK   10  A    between atoms: _20  and  _21
REMARK   11  A    between atoms: _20  and  _23
REMARK   12  A    between atoms: _23  and  _24
REMARK   13  A    between atoms: _26  and  _28
REMARK   14  A    between atoms: _28  and  _29
REMARK   15  A    between atoms: _28  and  _31
REMARK   16  A    between atoms: _31  and  _32
REMARK   17  A    between atoms: _38  and  _40
REMARK   18  A    between atoms: _40  and  _41
REMARK   19  A    between atoms: _40  and  _43
REMARK   20  A    between atoms: _43  and  _44
REMARK   21  A    between atoms: _49  and  _50
REMARK   22  A    between atoms: _52  and  _54
REMARK   23  A    between atoms: _54  and  _55
REMARK   24  A    between atoms: _54  and  _57
REMARK   25  A    between atoms: _57  and  _58
REMARK   26  A    between atoms: _58  and  _59
REMARK   27  A    between atoms: _61  and  _63
REMARK   28  A    between atoms: _63  and  _64
REMARK   29  A    between atoms: _63  and  _66
REMARK   30  A    between atoms: _66  and  _67
REMARK   31  A    between atoms: _67  and  _68
REMARK   32  A    between atoms: _68  and  _69
REMARK   33  A    between atoms: _69  and  _70
REMARK   34  A    between atoms: _74  and  _76
REMARK   35  A    between atoms: _76  and  _77
REMARK   36  A    between atoms: _76  and  _79
REMARK   37  A    between atoms: _82  and  _84
REMARK   38  A    between atoms: _84  and  _85
REMARK   39  A    between atoms: _84  and  _87
REMARK   40  A    between atoms: _90  and  _92
REMARK   41  A    between atoms: _92  and  _93
REMARK   42  A    between atoms: _95  and  _97
REMARK   43  A    between atoms: _97  and  _98
REMARK   44  A    between atoms: _97  and  _100
REMARK   45  A    between atoms: _100  and  _101
REMARK   46  A    between atoms: _104  and  _106
REMARK   47  A    between atoms: _106  and  _107
REMARK   48  A    between atoms: _106  and  _109
REMARK   49  A    between atoms: _109  and  _110
REMARK   50  A    between atoms: _110  and  _111
REMARK   51  A    between atoms: _111  and  _112
REMARK   52  A    between atoms: _121  and  _123
REMARK   53  A    between atoms: _123  and  _124
REMARK   54  A    between atoms: _123  and  _126
REMARK   55  A    between atoms: _129  and  _131
REMARK   56  A    between atoms: _131  and  _132
REMARK   57  A    between atoms: _135  and  _137
REMARK   58  A    between atoms: _137  and  _138
REMARK   59  A    between atoms: _140  and  _142
REMARK   60  A    between atoms: _142  and  _143
REMARK   61  A    between atoms: _142  and  _145
REMARK   62  A    between atoms: _145  and  _146
REMARK   63  A    between atoms: _146  and  _147
REMARK   64  A    between atoms: _149  and  _151
REMARK   65  A    between atoms: _151  and  _152
REMARK   66  A    between atoms: _155  and  _157
REMARK   67  A    between atoms: _157  and  _158
REMARK   68  A    between atoms: _157  and  _160
REMARK   69  A    between atoms: _160  and  _161
REMARK   70  A    between atoms: _161  and  _162
REMARK   71  A    between atoms: _162  and  _163
REMARK   72  A    between atoms: _163  and  _164
REMARK   73  A    between atoms: _169  and  _170
REMARK   74  A    between atoms: _175  and  _177
REMARK   75  A    between atoms: _177  and  _178
REMARK   76  A    between atoms: _177  and  _180
REMARK   77  A    between atoms: _180  and  _181
REMARK   78  A    between atoms: _186  and  _188
REMARK   79  A    between atoms: _188  and  _189
REMARK   80  A    between atoms: _188  and  _191
REMARK   81  A    between atoms: _191  and  _192
REMARK   82  A    between atoms: _192  and  _193
REMARK   83  A    between atoms: _195  and  _197
REMARK   84  A    between atoms: _197  and  _198
REMARK   85  A    between atoms: _197  and  _200
REMARK   86  A    between atoms: _200  and  _201
REMARK   87  A    between atoms: _204  and  _206
REMARK   88  A    between atoms: _206  and  _207
REMARK   89  A    between atoms: _206  and  _209
REMARK   90  A    between atoms: _209  and  _210
REMARK   91  A    between atoms: _210  and  _211
REMARK   92  A    between atoms: _211  and  _212
REMARK   93  A    between atoms: _212  and  _213
REMARK   94  A    between atoms: _217  and  _219
REMARK   95  A    between atoms: _219  and  _220
REMARK   96  A    between atoms: _219  and  _222
REMARK   97  A    between atoms: _222  and  _223
REMARK   98  A    between atoms: _225  and  _227
REMARK   99  A    between atoms: _227  and  _228
REMARK  100  A    between atoms: _227  and  _230
REMARK  101  A    between atoms: _230  and  _231
REMARK  102  A    between atoms: _231  and  _232
REMARK  103  A    between atoms: _235  and  _237
REMARK  104  A    between atoms: _237  and  _238
REMARK  105  A    between atoms: _237  and  _240
REMARK  106  A    between atoms: _240  and  _241
REMARK  107  A    between atoms: _243  and  _245
REMARK  108  A    between atoms: _245  and  _246
REMARK  109  A    between atoms: _245  and  _248
REMARK  110  A    between atoms: _248  and  _249
REMARK  111  A    between atoms: _252  and  _254
REMARK  112  A    between atoms: _254  and  _255
REMARK  113  A    between atoms: _254  and  _257
REMARK  114  A    between atoms: _257  and  _258
REMARK  115  A    between atoms: _264  and  _266
REMARK  116  A    between atoms: _266  and  _267
REMARK  117  A    between atoms: _266  and  _269
REMARK  118  A    between atoms: _269  and  _270
REMARK  119  A    between atoms: _270  and  _271
REMARK  120  A    between atoms: _271  and  _272
REMARK  121  A    between atoms: _272  and  _273
REMARK  122  A    between atoms: _277  and  _279
REMARK  123  A    between atoms: _279  and  _280
REMARK  124  A    between atoms: _279  and  _282
REMARK  125  A    between atoms: _282  and  _283
REMARK  126  A    between atoms: _288  and  _290
REMARK  127  A    between atoms: _290  and  _291
REMARK  128  A    between atoms: _290  and  _293
REMARK  129  A    between atoms: _293  and  _294
REMARK  130  A    between atoms: _297  and  _299
REMARK  131  A    between atoms: _299  and  _300
REMARK  132  A    between atoms: _299  and  _302
REMARK  133  A    between atoms: _302  and  _303
REMARK  134  A    between atoms: _303  and  _304
REMARK  135  A    between atoms: _307  and  _309
REMARK  136  A    between atoms: _309  and  _310
REMARK  137  A    between atoms: _309  and  _312
REMARK  138  A    between atoms: _312  and  _313
REMARK  139  A    between atoms: _316  and  _318
REMARK  140  A    between atoms: _318  and  _319
REMARK  141  A    between atoms: _322  and  _324
REMARK  142  A    between atoms: _324  and  _325
REMARK  143  A    between atoms: _324  and  _327
REMARK  144  A    between atoms: _327  and  _328
REMARK  145  A    between atoms: _331  and  _333
REMARK  146  A    between atoms: _333  and  _334
REMARK  147  A    between atoms: _333  and  _336
REMARK  148  A    between atoms: _336  and  _337
REMARK  149  A    between atoms: _340  and  _342
REMARK  150  A    between atoms: _342  and  _343
REMARK  151  A    between atoms: _342  and  _345
REMARK  152  A    between atoms: _345  and  _346
REMARK  153  A    between atoms: _346  and  _347
REMARK  154  A    between atoms: _347  and  _348
REMARK  155  A    between atoms: _357  and  _359
REMARK  156  A    between atoms: _359  and  _360
REMARK  157  A    between atoms: _359  and  _362
REMARK  158  A    between atoms: _362  and  _363
REMARK  159  A    between atoms: _368  and  _370
REMARK  160  A    between atoms: _370  and  _371
REMARK  161  A    between atoms: _370  and  _373
REMARK  162  A    between atoms: _373  and  _374
REMARK  163  A    between atoms: _374  and  _375
REMARK  164  A    between atoms: _380  and  _382
REMARK  165  A    between atoms: _382  and  _383
REMARK  166  A    between atoms: _382  and  _385
REMARK  167  A    between atoms: _385  and  _386
REMARK  168  A    between atoms: _389  and  _391
REMARK  169  A    between atoms: _391  and  _392
REMARK  170  A    between atoms: _391  and  _394
REMARK  171  A    between atoms: _394  and  _395
REMARK  172  A    between atoms: _398  and  _400
REMARK  173  A    between atoms: _400  and  _401
REMARK  174  A    between atoms: _400  and  _403
REMARK  175  A    between atoms: _403  and  _404
REMARK  176  A    between atoms: _407  and  _409
REMARK  177  A    between atoms: _409  and  _410
REMARK  178  A    between atoms: _409  and  _412
REMARK  179  A    between atoms: _412  and  _413
REMARK  180  A    between atoms: _413  and  _414
REMARK  181  A    between atoms: _414  and  _415
REMARK  182  A    between atoms: _415  and  _416
REMARK  183  A    between atoms: _420  and  _422
REMARK  184  A    between atoms: _422  and  _423
REMARK  185  A    between atoms: _422  and  _425
REMARK  186  A    between atoms: _425  and  _426
REMARK  187  A    between atoms: _426  and  _427
REMARK  188  A    between atoms: _427  and  _428
REMARK  189  A    between atoms: _437  and  _439
REMARK  190  A    between atoms: _439  and  _440
REMARK  191  A    between atoms: _439  and  _442
REMARK  192  A    between atoms: _442  and  _443
REMARK  193  A    between atoms: _446  and  _448
REMARK  194  A    between atoms: _448  and  _449
REMARK  195  A    between atoms: _448  and  _451
REMARK  196  A    between atoms: _454  and  _456
REMARK  197  A    between atoms: _456  and  _457
REMARK  198  A    between atoms: _456  and  _459
REMARK  199  A    between atoms: _459  and  _460
REMARK  200  A    between atoms: _460  and  _461
REMARK  201  A    between atoms: _464  and  _466
REMARK  202  A    between atoms: _466  and  _467
REMARK  203  A    between atoms: _466  and  _469
REMARK  204  A    between atoms: _471  and  _473
REMARK  205  A    between atoms: _473  and  _474
REMARK  206  A    between atoms: _473  and  _476
REMARK  207  A    between atoms: _479  and  _481
REMARK  208  A    between atoms: _481  and  _482
REMARK  209  A    between atoms: _481  and  _484
REMARK  210  A    between atoms: _484  and  _485
REMARK  211  A    between atoms: _487  and  _489
REMARK  212  A    between atoms: _489  and  _490
REMARK  213  A    between atoms: _489  and  _492
REMARK  214  A    between atoms: _492  and  _493
REMARK  215  A    between atoms: _496  and  _498
REMARK  216  A    between atoms: _498  and  _499
REMARK  217  A    between atoms: _498  and  _501
REMARK  218  A    between atoms: _501  and  _502
REMARK  219  A    between atoms: _502  and  _503
REMARK  220  A    between atoms: _503  and  _504
REMARK  221  A    between atoms: _513  and  _515
REMARK  222  A    between atoms: _515  and  _516
REMARK  223  A    between atoms: _515  and  _518
REMARK  224  A    between atoms: _521  and  _523
REMARK  225  A    between atoms: _523  and  _524
REMARK  226  A    between atoms: _523  and  _526
REMARK  227  A    between atoms: _526  and  _527
REMARK  228  A    between atoms: _532  and  _533
REMARK                            x       y       z     vdW  Elec       q    Type
REMARK                         _______ _______ _______ _____ _____    ______ ____
ROOT
ATOM      1  CA  MET A   2      23.294  50.153  26.000  0.00  0.00    +0.149 C 
ENDROOT
BRANCH   1   4
ATOM      2  C   TYR A   1      21.034  50.328  25.174  0.00  0.00    +0.239 C 
ATOM      3  O   TYR A   1      20.708  49.309  25.788  0.00  0.00    -0.274 OA
ATOM      4  N   MET A   2      22.274  50.812  25.204  0.00  0.00    -0.297 N 
ATOM      5  H   MET A   2      22.512  51.663  24.656  0.00  0.00    +0.150 HD
BRANCH   2   6
ATOM      6  CA  TYR A   1      20.010  51.108  24.344  0.00  0.00    +0.149 C 
BRANCH   6   7
ATOM      7  N   TYR A   1      20.075  52.525  24.668  0.00  0.00    -0.238 NA
ATOM      8  H   TYR A   1      20.322  53.211  23.927  0.00  0.00    +0.142 HD
ENDBRANCH   6   7
BRANCH   6   9
ATOM      9  CB  TYR A   1      20.209  50.873  22.832  0.00  0.00    +0.053 C 
BRANCH   9  10
ATOM     10  CG  TYR A   1      20.408  49.413  22.509  0.00  0.00    -0.020 A 
ATOM     11  CD2 TYR A   1      19.325  48.540  22.464  0.00  0.00    -0.001 A 
ATOM     12  CE2 TYR A   1      19.508  47.184  22.200  0.00  0.00    +0.036 A 
ATOM     13  CZ  TYR A   1      20.792  46.684  21.990  0.00  0.00    +0.134 A 
ATOM     14  CE1 TYR A   1      21.890  47.534  22.036  0.00  0.00    +0.036 A 
ATOM     15  CD1 TYR A   1      21.689  48.891  22.296  0.00  0.00    -0.001 A 
BRANCH  13  16
ATOM     16  OH  TYR A   1      20.969  45.337  21.726  0.00  0.00    -0.506 OA
ATOM     17  HH  TYR A   1      20.089  44.883  21.731  0.00  0.00    +0.292 HD
ENDBRANCH  13  16
ENDBRANCH   9  10
ENDBRANCH   6   9
ENDBRANCH   2   6
ENDBRANCH   1   4
BRANCH   1  18
ATOM     18  C   MET A   2      22.957  50.090  27.492  0.00  0.00    +0.241 C 
ATOM     19  O   MET A   2      23.241  49.078  28.155  0.00  0.00    -0.273 OA
ATOM     20  N   LYS A   3      22.355  51.155  28.016  0.00  0.00    -0.298 N 
ATOM     21  H   LYS A   3      22.208  52.004  27.433  0.00  0.00    +0.150 HD
BRANCH  20  22
ATOM     22  CA  LYS A   3      21.895  51.141  29.417  0.00  0.00    +0.137 C 
BRANCH  22  23
ATOM     23  C   LYS A   3      20.906  50.018  29.655  0.00  0.00    +0.227 C 
ATOM     24  O   LYS A   3      21.015  49.296  30.653  0.00  0.00    -0.286 OA
ENDBRANCH  22  23
BRANCH  22  25
ATOM     25  CB  LYS A   3      21.247  52.467  29.830  0.00  0.00    +0.028 C 
BRANCH  25  26
ATOM     26  CG  LYS A   3      22.217  53.620  29.993  0.00  0.00    -0.000 C 
BRANCH  26  27
ATOM     27  CD  LYS A   3      21.489  54.812  30.590  0.00  0.00    -0.024 C 
BRANCH  27  28
ATOM     28  CE  LYS A   3      22.412  55.967  30.855  0.00  0.00    -0.086 C 
BRANCH  28  29
ATOM     29  NZ  LYS A   3      21.660  57.030  31.593  0.00  0.00    +0.380 N 
ATOM     30  HZ1 LYS A   3      21.311  56.644  32.494  0.00  0.00    -0.089 HD
ATOM     31  HZ2 LYS A   3      22.293  57.834  31.780  0.00  0.00    -0.089 HD
ATOM     32  HZ3 LYS A   3      20.855  57.348  31.016  0.00  0.00    -0.089 HD
ENDBRANCH  28  29
ENDBRANCH  27  28
ENDBRANCH  26  27
ENDBRANCH  25  26
ENDBRANCH  22  25
ENDBRANCH  20  22
ENDBRANCH   1  18
BRANCH   1  33
ATOM     33  CB  MET A   2      24.643  50.816  25.781  0.00  0.00    +0.041 C 
BRANCH  33  34
ATOM     34  CG  MET A   2      25.257  50.448  24.418  0.00  0.00    +0.060 C 
BRANCH  34  35
ATOM     35  SD  MET A   2      26.979  50.993  24.332  0.00  0.00    -0.139 S 
ATOM     36  CE  MET A   2      26.757  52.751  24.235  0.00  0.00    +0.069 C 
ENDBRANCH  34  35
ENDBRANCH  33  34
ENDBRANCH   1  33
TORSDOF 17
REMARK  Name = ../refined-set-2016/2hnx/2hnx_pocket.pdb
REMARK  228 active torsions:
REMARK  status: ('A' for Active; 'I' for Inactive)
REMARK    1  A    between atoms: _1  and  _3
REMARK    2  A    between atoms: _3  and  _4
REMARK    3  A    between atoms: _3  and  _6
REMARK    4  A    between atoms: _6  and  _7
REMARK    5  A    between atoms: _10  and  _12
REMARK    6  A    between atoms: _12  and  _13
REMARK    7  A    between atoms: _12  and  _15
REMARK    8  A    between atoms: _15  and  _16
REMARK    9  A    between atoms: _18  and  _20
REMARK   10  A    between atoms: _20  and  _21
REMARK   11  A    between atoms: _20  and  _23
REMARK   12  A    between atoms: _23  and  _24
REMARK   13  A    between atoms: _26  and  _28
REMARK   14  A    between atoms: _28  and  _29
REMARK   15  A    between atoms: _28  and  _31
REMARK   16  A    between atoms: _31  and  _32
REMARK   17  A    between atoms: _38  and  _40
REMARK   18  A    between atoms: _40  and  _41
REMARK   19  A    between atoms: _40  and  _43
REMARK   20  A    between atoms: _43  and  _44
REMARK   21  A    between atoms: _49  and  _50
REMARK   22  A    between atoms: _52  and  _54
REMARK   23  A    between atoms: _54  and  _55
REMARK   24  A    between atoms: _54  and  _57
REMARK   25  A    between atoms: _57  and  _58
REMARK   26  A    between atoms: _58  and  _59
REMARK   27  A    between atoms: _61  and  _63
REMARK   28  A    between atoms: _63  and  _64
REMARK   29  A    between atoms: _63  and  _66
REMARK   30  A    between atoms: _66  and  _67
REMARK   31  A    between atoms: _67  and  _68
REMARK   32  A    between atoms: _68  and  _69
REMARK   33  A    between atoms: _69  and  _70
REMARK   34  A    between atoms: _74  and  _76
REMARK   35  A    between atoms: _76  and  _77
REMARK   36  A    between atoms: _76  and  _79
REMARK   37  A    between atoms: _82  and  _84
REMARK   38  A    between atoms: _84  and  _85
REMARK   39  A    between atoms: _84  and  _87
REMARK   40  A    between atoms: _90  and  _92
REMARK   41  A    between atoms: _92  and  _93
REMARK   42  A    between atoms: _95  and  _97
REMARK   43  A    between atoms: _97  and  _98
REMARK   44  A    between atoms: _97  and  _100
REMARK   45  A    between atoms: _100  and  _101
REMARK   46  A    between atoms: _104  and  _106
REMARK   47  A    between atoms: _106  and  _107
REMARK   48  A    between atoms: _106  and  _109
REMARK   49  A    between atoms: _109  and  _110
REMARK   50  A    between atoms: _110  and  _111
REMARK   51  A    between atoms: _111  and  _112
REMARK   52  A    between atoms: _121  and  _123
REMARK   53  A    between atoms: _123  and  _124
REMARK   54  A    between atoms: _123  and  _126
REMARK   55  A    between atoms: _129  and  _131
REMARK   56  A    between atoms: _131  and  _132
REMARK   57  A    between atoms: _135  and  _137
REMARK   58  A    between atoms: _137  and  _138
REMARK   59  A    between atoms: _140  and  _142
REMARK   60  A    between atoms: _142  and  _143
REMARK   61  A    between atoms: _142  and  _145
REMARK   62  A    between atoms: _145  and  _146
REMARK   63  A    between atoms: _146  and  _147
REMARK   64  A    between atoms: _149  and  _151
REMARK   65  A    between atoms: _151  and  _152
REMARK   66  A    between atoms: _155  and  _157
REMARK   67  A    between atoms: _157  and  _158
REMARK   68  A    between atoms: _157  and  _160
REMARK   69  A    between atoms: _160  and  _161
REMARK   70  A    between atoms: _161  and  _162
REMARK   71  A    between atoms: _162  and  _163
REMARK   72  A    between atoms: _163  and  _164
REMARK   73  A    between atoms: _169  and  _170
REMARK   74  A    between atoms: _175  and  _177
REMARK   75  A    between atoms: _177  and  _178
REMARK   76  A    between atoms: _177  and  _180
REMARK   77  A    between atoms: _180  and  _181
REMARK   78  A    between atoms: _186  and  _188
REMARK   79  A    between atoms: _188  and  _189
REMARK   80  A    between atoms: _188  and  _191
REMARK   81  A    between atoms: _191  and  _192
REMARK   82  A    between atoms: _192  and  _193
REMARK   83  A    between atoms: _195  and  _197
REMARK   84  A    between atoms: _197  and  _198
REMARK   85  A    between atoms: _197  and  _200
REMARK   86  A    between atoms: _200  and  _201
REMARK   87  A    between atoms: _204  and  _206
REMARK   88  A    between atoms: _206  and  _207
REMARK   89  A    between atoms: _206  and  _209
REMARK   90  A    between atoms: _209  and  _210
REMARK   91  A    between atoms: _210  and  _211
REMARK   92  A    between atoms: _211  and  _212
REMARK   93  A    between atoms: _212  and  _213
REMARK   94  A    between atoms: _217  and  _219
REMARK   95  A    between atoms: _219  and  _220
REMARK   96  A    between atoms: _219  and  _222
REMARK   97  A    between atoms: _222  and  _223
REMARK   98  A    between atoms: _225  and  _227
REMARK   99  A    between atoms: _227  and  _228
REMARK  100  A    between atoms: _227  and  _230
REMARK  101  A    between atoms: _230  and  _231
REMARK  102  A    between atoms: _231  and  _232
REMARK  103  A    between atoms: _235  and  _237
REMARK  104  A    between atoms: _237  and  _238
REMARK  105  A    between atoms: _237  and  _240
REMARK  106  A    between atoms: _240  and  _241
REMARK  107  A    between atoms: _243  and  _245
REMARK  108  A    between atoms: _245  and  _246
REMARK  109  A    between atoms: _245  and  _248
REMARK  110  A    between atoms: _248  and  _249
REMARK  111  A    between atoms: _252  and  _254
REMARK  112  A    between atoms: _254  and  _255
REMARK  113  A    between atoms: _254  and  _257
REMARK  114  A    between atoms: _257  and  _258
REMARK  115  A    between atoms: _264  and  _266
REMARK  116  A    between atoms: _266  and  _267
REMARK  117  A    between atoms: _266  and  _269
REMARK  118  A    between atoms: _269  and  _270
REMARK  119  A    between atoms: _270  and  _271
REMARK  120  A    between atoms: _271  and  _272
REMARK  121  A    between atoms: _272  and  _273
REMARK  122  A    between atoms: _277  and  _279
REMARK  123  A    between atoms: _279  and  _280
REMARK  124  A    between atoms: _279  and  _282
REMARK  125  A    between atoms: _282  and  _283
REMARK  126  A    between atoms: _288  and  _290
REMARK  127  A    between atoms: _290  and  _291
REMARK  128  A    between atoms: _290  and  _293
REMARK  129  A    between atoms: _293  and  _294
REMARK  130  A    between atoms: _297  and  _299
REMARK  131  A    between atoms: _299  and  _300
REMARK  132  A    between atoms: _299  and  _302
REMARK  133  A    between atoms: _302  and  _303
REMARK  134  A    between atoms: _303  and  _304
REMARK  135  A    between atoms: _307  and  _309
REMARK  136  A    between atoms: _309  and  _310
REMARK  137  A    between atoms: _309  and  _312
REMARK  138  A    between atoms: _312  and  _313
REMARK  139  A    between atoms: _316  and  _318
REMARK  140  A    between atoms: _318  and  _319
REMARK  141  A    between atoms: _322  and  _324
REMARK  142  A    between atoms: _324  and  _325
REMARK  143  A    between atoms: _324  and  _327
REMARK  144  A    between atoms: _327  and  _328
REMARK  145  A    between atoms: _331  and  _333
REMARK  146  A    between atoms: _333  and  _334
REMARK  147  A    between atoms: _333  and  _336
REMARK  148  A    between atoms: _336  and  _337
REMARK  149  A    between atoms: _340  and  _342
REMARK  150  A    between atoms: _342  and  _343
REMARK  151  A    between atoms: _342  and  _345
REMARK  152  A    between atoms: _345  and  _346
REMARK  153  A    between atoms: _346  and  _347
REMARK  154  A    between atoms: _347  and  _348
REMARK  155  A    between atoms: _357  and  _359
REMARK  156  A    between atoms: _359  and  _360
REMARK  157  A    between atoms: _359  and  _362
REMARK  158  A    between atoms: _362  and  _363
REMARK  159  A    between atoms: _368  and  _370
REMARK  160  A    between atoms: _370  and  _371
REMARK  161  A    between atoms: _370  and  _373
REMARK  162  A    between atoms: _373  and  _374
REMARK  163  A    between atoms: _374  and  _375
REMARK  164  A    between atoms: _380  and  _382
REMARK  165  A    between atoms: _382  and  _383
REMARK  166  A    between atoms: _382  and  _385
REMARK  167  A    between atoms: _385  and  _386
REMARK  168  A    between atoms: _389  and  _391
REMARK  169  A    between atoms: _391  and  _392
REMARK  170  A    between atoms: _391  and  _394
REMARK  171  A    between atoms: _394  and  _395
REMARK  172  A    between atoms: _398  and  _400
REMARK  173  A    between atoms: _400  and  _401
REMARK  174  A    between atoms: _400  and  _403
REMARK  175  A    between atoms: _403  and  _404
REMARK  176  A    between atoms: _407  and  _409
REMARK  177  A    between atoms: _409  and  _410
REMARK  178  A    between atoms: _409  and  _412
REMARK  179  A    between atoms: _412  and  _413
REMARK  180  A    between atoms: _413  and  _414
REMARK  181  A    between atoms: _414  and  _415
REMARK  182  A    between atoms: _415  and  _416
REMARK  183  A    between atoms: _420  and  _422
REMARK  184  A    between atoms: _422  and  _423
REMARK  185  A    between atoms: _422  and  _425
REMARK  186  A    between atoms: _425  and  _426
REMARK  187  A    between atoms: _426  and  _427
REMARK  188  A    between atoms: _427  and  _428
REMARK  189  A    between atoms: _437  and  _439
REMARK  190  A    between atoms: _439  and  _440
REMARK  191  A    between atoms: _439  and  _442
REMARK  192  A    between atoms: _442  and  _443
REMARK  193  A    between atoms: _446  and  _448
REMARK  194  A    between atoms: _448  and  _449
REMARK  195  A    between atoms: _448  and  _451
REMARK  196  A    between atoms: _454  and  _456
REMARK  197  A    between atoms: _456  and  _457
REMARK  198  A    between atoms: _456  and  _459
REMARK  199  A    between atoms: _459  and  _460
REMARK  200  A    between atoms: _460  and  _461
REMARK  201  A    between atoms: _464  and  _466
REMARK  202  A    between atoms: _466  and  _467
REMARK  203  A    between atoms: _466  and  _469
REMARK  204  A    between atoms: _471  and  _473
REMARK  205  A    between atoms: _473  and  _474
REMARK  206  A    between atoms: _473  and  _476
REMARK  207  A    between atoms: _479  and  _481
REMARK  208  A    between atoms: _481  and  _482
REMARK  209  A    between atoms: _481  and  _484
REMARK  210  A    between atoms: _484  and  _485
REMARK  211  A    between atoms: _487  and  _489
REMARK  212  A    between atoms: _489  and  _490
REMARK  213  A    between atoms: _489  and  _492
REMARK  214  A    between atoms: _492  and  _493
REMARK  215  A    between atoms: _496  and  _498
REMARK  216  A    between atoms: _498  and  _499
REMARK  217  A    between atoms: _498  and  _501
REMARK  218  A    between atoms: _501  and  _502
REMARK  219  A    between atoms: _502  and  _503
REMARK  220  A    between atoms: _503  and  _504
REMARK  221  A    between atoms: _513  and  _515
REMARK  222  A    between atoms: _515  and  _516
REMARK  223  A    between atoms: _515  and  _518
REMARK  224  A    between atoms: _521  and  _523
REMARK  225  A    between atoms: _523  and  _524
REMARK  226  A    between atoms: _523  and  _526
REMARK  227  A    between atoms: _526  and  _527
REMARK  228  A    between atoms: _532  and  _533
REMARK                            x       y       z     vdW  Elec       q    Type
REMARK                         _______ _______ _______ _____ _____    ______ ____
ROOT
ATOM      1  CA  VAL A   1      21.190  46.000  27.866  0.00  0.00    +0.133 C 
ENDROOT
BRANCH   1   2
ATOM      2  CB  VAL A   1      22.141  46.011  26.637  0.00  0.00    +0.023 C 
ATOM      3  CG2 VAL A   1      23.161  44.859  26.680  0.00  0.00    +0.002 C 
ATOM      4  CG1 VAL A   1      21.338  45.980  25.346  0.00  0.00    +0.002 C 
ENDBRANCH   1   2
BRANCH   1   5
ATOM      5  N   VAL A   1      20.499  47.289  27.981  0.00  0.00    -0.239 NA
ATOM      6  H   VAL A   1      20.804  48.084  27.384  0.00  0.00    +0.142 HD
ENDBRANCH   1   5
BRANCH   1   7
ATOM      7  C   VAL A   1      21.955  45.688  29.150  0.00  0.00    +0.224 C 
ATOM      8  O   VAL A   1      22.177  44.527  29.480  0.00  0.00    -0.287 OA
ENDBRANCH   1   7
TORSDOF 3
REMARK  Name = ../refined-set-2016/2hnx/2hnx_pocket.pdb
REMARK  228 active torsions:
REMARK  status: ('A' for Active; 'I' for Inactive)
REMARK    1  A    between atoms: _1  and  _3
REMARK    2  A    between atoms: _3  and  _4
REMARK    3  A    between atoms: _3  and  _6
REMARK    4  A    between atoms: _6  and  _7
REMARK    5  A    between atoms: _10  and  _12
REMARK    6  A    between atoms: _12  and  _13
REMARK    7  A    between atoms: _12  and  _15
REMARK    8  A    between atoms: _15  and  _16
REMARK    9  A    between atoms: _18  and  _20
REMARK   10  A    between atoms: _20  and  _21
REMARK   11  A    between atoms: _20  and  _23
REMARK   12  A    between atoms: _23  and  _24
REMARK   13  A    between atoms: _26  and  _28
REMARK   14  A    between atoms: _28  and  _29
REMARK   15  A    between atoms: _28  and  _31
REMARK   16  A    between atoms: _31  and  _32
REMARK   17  A    between atoms: _38  and  _40
REMARK   18  A    between atoms: _40  and  _41
REMARK   19  A    between atoms: _40  and  _43
REMARK   20  A    between atoms: _43  and  _44
REMARK   21  A    between atoms: _49  and  _50
REMARK   22  A    between atoms: _52  and  _54
REMARK   23  A    between atoms: _54  and  _55
REMARK   24  A    between atoms: _54  and  _57
REMARK   25  A    between atoms: _57  and  _58
REMARK   26  A    between atoms: _58  and  _59
REMARK   27  A    between atoms: _61  and  _63
REMARK   28  A    between atoms: _63  and  _64
REMARK   29  A    between atoms: _63  and  _66
REMARK   30  A    between atoms: _66  and  _67
REMARK   31  A    between atoms: _67  and  _68
REMARK   32  A    between atoms: _68  and  _69
REMARK   33  A    between atoms: _69  and  _70
REMARK   34  A    between atoms: _74  and  _76
REMARK   35  A    between atoms: _76  and  _77
REMARK   36  A    between atoms: _76  and  _79
REMARK   37  A    between atoms: _82  and  _84
REMARK   38  A    between atoms: _84  and  _85
REMARK   39  A    between atoms: _84  and  _87
REMARK   40  A    between atoms: _90  and  _92
REMARK   41  A    between atoms: _92  and  _93
REMARK   42  A    between atoms: _95  and  _97
REMARK   43  A    between atoms: _97  and  _98
REMARK   44  A    between atoms: _97  and  _100
REMARK   45  A    between atoms: _100  and  _101
REMARK   46  A    between atoms: _104  and  _106
REMARK   47  A    between atoms: _106  and  _107
REMARK   48  A    between atoms: _106  and  _109
REMARK   49  A    between atoms: _109  and  _110
REMARK   50  A    between atoms: _110  and  _111
REMARK   51  A    between atoms: _111  and  _112
REMARK   52  A    between atoms: _121  and  _123
REMARK   53  A    between atoms: _123  and  _124
REMARK   54  A    between atoms: _123  and  _126
REMARK   55  A    between atoms: _129  and  _131
REMARK   56  A    between atoms: _131  and  _132
REMARK   57  A    between atoms: _135  and  _137
REMARK   58  A    between atoms: _137  and  _138
REMARK   59  A    between atoms: _140  and  _142
REMARK   60  A    between atoms: _142  and  _143
REMARK   61  A    between atoms: _142  and  _145
REMARK   62  A    between atoms: _145  and  _146
REMARK   63  A    between atoms: _146  and  _147
REMARK   64  A    between atoms: _149  and  _151
REMARK   65  A    between atoms: _151  and  _152
REMARK   66  A    between atoms: _155  and  _157
REMARK   67  A    between atoms: _157  and  _158
REMARK   68  A    between atoms: _157  and  _160
REMARK   69  A    between atoms: _160  and  _161
REMARK   70  A    between atoms: _161  and  _162
REMARK   71  A    between atoms: _162  and  _163
REMARK   72  A    between atoms: _163  and  _164
REMARK   73  A    between atoms: _169  and  _170
REMARK   74  A    between atoms: _175  and  _177
REMARK   75  A    between atoms: _177  and  _178
REMARK   76  A    between atoms: _177  and  _180
REMARK   77  A    between atoms: _180  and  _181
REMARK   78  A    between atoms: _186  and  _188
REMARK   79  A    between atoms: _188  and  _189
REMARK   80  A    between atoms: _188  and  _191
REMARK   81  A    between atoms: _191  and  _192
REMARK   82  A    between atoms: _192  and  _193
REMARK   83  A    between atoms: _195  and  _197
REMARK   84  A    between atoms: _197  and  _198
REMARK   85  A    between atoms: _197  and  _200
REMARK   86  A    between atoms: _200  and  _201
REMARK   87  A    between atoms: _204  and  _206
REMARK   88  A    between atoms: _206  and  _207
REMARK   89  A    between atoms: _206  and  _209
REMARK   90  A    between atoms: _209  and  _210
REMARK   91  A    between atoms: _210  and  _211
REMARK   92  A    between atoms: _211  and  _212
REMARK   93  A    between atoms: _212  and  _213
REMARK   94  A    between atoms: _217  and  _219
REMARK   95  A    between atoms: _219  and  _220
REMARK   96  A    between atoms: _219  and  _222
REMARK   97  A    between atoms: _222  and  _223
REMARK   98  A    between atoms: _225  and  _227
REMARK   99  A    between atoms: _227  and  _228
REMARK  100  A    between atoms: _227  and  _230
REMARK  101  A    between atoms: _230  and  _231
REMARK  102  A    between atoms: _231  and  _232
REMARK  103  A    between atoms: _235  and  _237
REMARK  104  A    between atoms: _237  and  _238
REMARK  105  A    between atoms: _237  and  _240
REMARK  106  A    between atoms: _240  and  _241
REMARK  107  A    between atoms: _243  and  _245
REMARK  108  A    between atoms: _245  and  _246
REMARK  109  A    between atoms: _245  and  _248
REMARK  110  A    between atoms: _248  and  _249
REMARK  111  A    between atoms: _252  and  _254
REMARK  112  A    between atoms: _254  and  _255
REMARK  113  A    between atoms: _254  and  _257
REMARK  114  A    between atoms: _257  and  _258
REMARK  115  A    between atoms: _264  and  _266
REMARK  116  A    between atoms: _266  and  _267
REMARK  117  A    between atoms: _266  and  _269
REMARK  118  A    between atoms: _269  and  _270
REMARK  119  A    between atoms: _270  and  _271
REMARK  120  A    between atoms: _271  and  _272
REMARK  121  A    between atoms: _272  and  _273
REMARK  122  A    between atoms: _277  and  _279
REMARK  123  A    between atoms: _279  and  _280
REMARK  124  A    between atoms: _279  and  _282
REMARK  125  A    between atoms: _282  and  _283
REMARK  126  A    between atoms: _288  and  _290
REMARK  127  A    between atoms: _290  and  _291
REMARK  128  A    between atoms: _290  and  _293
REMARK  129  A    between atoms: _293  and  _294
REMARK  130  A    between atoms: _297  and  _299
REMARK  131  A    between atoms: _299  and  _300
REMARK  132  A    between atoms: _299  and  _302
REMARK  133  A    between atoms: _302  and  _303
REMARK  134  A    between atoms: _303  and  _304
REMARK  135  A    between atoms: _307  and  _309
REMARK  136  A    between atoms: _309  and  _310
REMARK  137  A    between atoms: _309  and  _312
REMARK  138  A    between atoms: _312  and  _313
REMARK  139  A    between atoms: _316  and  _318
REMARK  140  A    between atoms: _318  and  _319
REMARK  141  A    between atoms: _322  and  _324
REMARK  142  A    between atoms: _324  and  _325
REMARK  143  A    between atoms: _324  and  _327
REMARK  144  A    between atoms: _327  and  _328
REMARK  145  A    between atoms: _331  and  _333
REMARK  146  A    between atoms: _333  and  _334
REMARK  147  A    between atoms: _333  and  _336
REMARK  148  A    between atoms: _336  and  _337
REMARK  149  A    between atoms: _340  and  _342
REMARK  150  A    between atoms: _342  and  _343
REMARK  151  A    between atoms: _342  and  _345
REMARK  152  A    between atoms: _345  and  _346
REMARK  153  A    between atoms: _346  and  _347
REMARK  154  A    between atoms: _347  and  _348
REMARK  155  A    between atoms: _357  and  _359
REMARK  156  A    between atoms: _359  and  _360
REMARK  157  A    between atoms: _359  and  _362
REMARK  158  A    between atoms: _362  and  _363
REMARK  159  A    between atoms: _368  and  _370
REMARK  160  A    between atoms: _370  and  _371
REMARK  161  A    between atoms: _370  and  _373
REMARK  162  A    between atoms: _373  and  _374
REMARK  163  A    between atoms: _374  and  _375
REMARK  164  A    between atoms: _380  and  _382
REMARK  165  A    between atoms: _382  and  _383
REMARK  166  A    between atoms: _382  and  _385
REMARK  167  A    between atoms: _385  and  _386
REMARK  168  A    between atoms: _389  and  _391
REMARK  169  A    between atoms: _391  and  _392
REMARK  170  A    between atoms: _391  and  _394
REMARK  171  A    between atoms: _394  and  _395
REMARK  172  A    between atoms: _398  and  _400
REMARK  173  A    between atoms: _400  and  _401
REMARK  174  A    between atoms: _400  and  _403
REMARK  175  A    between atoms: _403  and  _404
REMARK  176  A    between atoms: _407  and  _409
REMARK  177  A    between atoms: _409  and  _410
REMARK  178  A    between atoms: _409  and  _412
REMARK  179  A    between atoms: _412  and  _413
REMARK  180  A    between atoms: _413  and  _414
REMARK  181  A    between atoms: _414  and  _415
REMARK  182  A    between atoms: _415  and  _416
REMARK  183  A    between atoms: _420  and  _422
REMARK  184  A    between atoms: _422  and  _423
REMARK  185  A    between atoms: _422  and  _425
REMARK  186  A    between atoms: _425  and  _426
REMARK  187  A    between atoms: _426  and  _427
REMARK  188  A    between atoms: _427  and  _428
REMARK  189  A    between atoms: _437  and  _439
REMARK  190  A    between atoms: _439  and  _440
REMARK  191  A    between atoms: _439  and  _442
REMARK  192  A    between atoms: _442  and  _443
REMARK  193  A    between atoms: _446  and  _448
REMARK  194  A    between atoms: _448  and  _449
REMARK  195  A    between atoms: _448  and  _451
REMARK  196  A    between atoms: _454  and  _456
REMARK  197  A    between atoms: _456  and  _457
REMARK  198  A    between atoms: _456  and  _459
REMARK  199  A    between atoms: _459  and  _460
REMARK  200  A    between atoms: _460  and  _461
REMARK  201  A    between atoms: _464  and  _466
REMARK  202  A    between atoms: _466  and  _467
REMARK  203  A    between atoms: _466  and  _469
REMARK  204  A    between atoms: _471  and  _473
REMARK  205  A    between atoms: _473  and  _474
REMARK  206  A    between atoms: _473  and  _476
REMARK  207  A    between atoms: _479  and  _481
REMARK  208  A    between atoms: _481  and  _482
REMARK  209  A    between atoms: _481  and  _484
REMARK  210  A    between atoms: _484  and  _485
REMARK  211  A    between atoms: _487  and  _489
REMARK  212  A    between atoms: _489  and  _490
REMARK  213  A    between atoms: _489  and  _492
REMARK  214  A    between atoms: _492  and  _493
REMARK  215  A    between atoms: _496  and  _498
REMARK  216  A    between atoms: _498  and  _499
REMARK  217  A    between atoms: _498  and  _501
REMARK  218  A    between atoms: _501  and  _502
REMARK  219  A    between atoms: _502  and  _503
REMARK  220  A    between atoms: _503  and  _504
REMARK  221  A    between atoms: _513  and  _515
REMARK  222  A    between atoms: _515  and  _516
REMARK  223  A    between atoms: _515  and  _518
REMARK  224  A    between atoms: _521  and  _523
REMARK  225  A    between atoms: _523  and  _524
REMARK  226  A    between atoms: _523  and  _526
REMARK  227  A    between atoms: _526  and  _527
REMARK  228  A    between atoms: _532  and  _533
REMARK                            x       y       z     vdW  Elec       q    Type
REMARK                         _______ _______ _______ _____ _____    ______ ____
ROOT
ATOM      1  C   VAL A   1      26.817  48.963  30.780  0.00  0.00    +0.238 C 
ATOM      2  N   GLY A   2      27.966  48.726  31.406  0.00  0.00    -0.297 N 
ATOM      3  H   GLY A   2      28.505  47.873  31.155  0.00  0.00    +0.150 HD
ATOM      4  O   VAL A   1      26.093  49.924  31.019  0.00  0.00    -0.274 OA
ENDROOT
BRANCH   1   5
ATOM      5  CA  VAL A   1      26.399  47.931  29.735  0.00  0.00    +0.145 C 
BRANCH   5   6
ATOM      6  CB  VAL A   1      26.601  48.493  28.306  0.00  0.00    +0.025 C 
ATOM      7  CG2 VAL A   1      28.055  48.833  28.048  0.00  0.00    +0.002 C 
ATOM      8  CG1 VAL A   1      26.115  47.467  27.265  0.00  0.00    +0.002 C 
ENDBRANCH   5   6
BRANCH   5   9
ATOM      9  N   VAL A   1      25.007  47.568  29.943  0.00  0.00    -0.238 NA
ATOM     10  H   VAL A   1      24.302  47.840  29.228  0.00  0.00    +0.142 HD
ENDBRANCH   5   9
ENDBRANCH   1   5
BRANCH   2  11
ATOM     11  CA  GLY A   2      28.504  49.621  32.437  0.00  0.00    +0.163 C 
BRANCH  11  12
ATOM     12  C   GLY A   2      28.947  50.968  31.906  0.00  0.00    +0.229 C 
ATOM     13  O   GLY A   2      29.145  51.130  30.697  0.00  0.00    -0.286 OA
ENDBRANCH  11  12
ENDBRANCH   2  11
TORSDOF 5
REMARK  Name = ../refined-set-2016/2hnx/2hnx_pocket.pdb
REMARK  228 active torsions:
REMARK  status: ('A' for Active; 'I' for Inactive)
REMARK    1  A    between atoms: _1  and  _3
REMARK    2  A    between atoms: _3  and  _4
REMARK    3  A    between atoms: _3  and  _6
REMARK    4  A    between atoms: _6  and  _7
REMARK    5  A    between atoms: _10  and  _12
REMARK    6  A    between atoms: _12  and  _13
REMARK    7  A    between atoms: _12  and  _15
REMARK    8  A    between atoms: _15  and  _16
REMARK    9  A    between atoms: _18  and  _20
REMARK   10  A    between atoms: _20  and  _21
REMARK   11  A    between atoms: _20  and  _23
REMARK   12  A    between atoms: _23  and  _24
REMARK   13  A    between atoms: _26  and  _28
REMARK   14  A    between atoms: _28  and  _29
REMARK   15  A    between atoms: _28  and  _31
REMARK   16  A    between atoms: _31  and  _32
REMARK   17  A    between atoms: _38  and  _40
REMARK   18  A    between atoms: _40  and  _41
REMARK   19  A    between atoms: _40  and  _43
REMARK   20  A    between atoms: _43  and  _44
REMARK   21  A    between atoms: _49  and  _50
REMARK   22  A    between atoms: _52  and  _54
REMARK   23  A    between atoms: _54  and  _55
REMARK   24  A    between atoms: _54  and  _57
REMARK   25  A    between atoms: _57  and  _58
REMARK   26  A    between atoms: _58  and  _59
REMARK   27  A    between atoms: _61  and  _63
REMARK   28  A    between atoms: _63  and  _64
REMARK   29  A    between atoms: _63  and  _66
REMARK   30  A    between atoms: _66  and  _67
REMARK   31  A    between atoms: _67  and  _68
REMARK   32  A    between atoms: _68  and  _69
REMARK   33  A    between atoms: _69  and  _70
REMARK   34  A    between atoms: _74  and  _76
REMARK   35  A    between atoms: _76  and  _77
REMARK   36  A    between atoms: _76  and  _79
REMARK   37  A    between atoms: _82  and  _84
REMARK   38  A    between atoms: _84  and  _85
REMARK   39  A    between atoms: _84  and  _87
REMARK   40  A    between atoms: _90  and  _92
REMARK   41  A    between atoms: _92  and  _93
REMARK   42  A    between atoms: _95  and  _97
REMARK   43  A    between atoms: _97  and  _98
REMARK   44  A    between atoms: _97  and  _100
REMARK   45  A    between atoms: _100  and  _101
REMARK   46  A    between atoms: _104  and  _106
REMARK   47  A    between atoms: _106  and  _107
REMARK   48  A    between atoms: _106  and  _109
REMARK   49  A    between atoms: _109  and  _110
REMARK   50  A    between atoms: _110  and  _111
REMARK   51  A    between atoms: _111  and  _112
REMARK   52  A    between atoms: _121  and  _123
REMARK   53  A    between atoms: _123  and  _124
REMARK   54  A    between atoms: _123  and  _126
REMARK   55  A    between atoms: _129  and  _131
REMARK   56  A    between atoms: _131  and  _132
REMARK   57  A    between atoms: _135  and  _137
REMARK   58  A    between atoms: _137  and  _138
REMARK   59  A    between atoms: _140  and  _142
REMARK   60  A    between atoms: _142  and  _143
REMARK   61  A    between atoms: _142  and  _145
REMARK   62  A    between atoms: _145  and  _146
REMARK   63  A    between atoms: _146  and  _147
REMARK   64  A    between atoms: _149  and  _151
REMARK   65  A    between atoms: _151  and  _152
REMARK   66  A    between atoms: _155  and  _157
REMARK   67  A    between atoms: _157  and  _158
REMARK   68  A    between atoms: _157  and  _160
REMARK   69  A    between atoms: _160  and  _161
REMARK   70  A    between atoms: _161  and  _162
REMARK   71  A    between atoms: _162  and  _163
REMARK   72  A    between atoms: _163  and  _164
REMARK   73  A    between atoms: _169  and  _170
REMARK   74  A    between atoms: _175  and  _177
REMARK   75  A    between atoms: _177  and  _178
REMARK   76  A    between atoms: _177  and  _180
REMARK   77  A    between atoms: _180  and  _181
REMARK   78  A    between atoms: _186  and  _188
REMARK   79  A    between atoms: _188  and  _189
REMARK   80  A    between atoms: _188  and  _191
REMARK   81  A    between atoms: _191  and  _192
REMARK   82  A    between atoms: _192  and  _193
REMARK   83  A    between atoms: _195  and  _197
REMARK   84  A    between atoms: _197  and  _198
REMARK   85  A    between atoms: _197  and  _200
REMARK   86  A    between atoms: _200  and  _201
REMARK   87  A    between atoms: _204  and  _206
REMARK   88  A    between atoms: _206  and  _207
REMARK   89  A    between atoms: _206  and  _209
REMARK   90  A    between atoms: _209  and  _210
REMARK   91  A    between atoms: _210  and  _211
REMARK   92  A    between atoms: _211  and  _212
REMARK   93  A    between atoms: _212  and  _213
REMARK   94  A    between atoms: _217  and  _219
REMARK   95  A    between atoms: _219  and  _220
REMARK   96  A    between atoms: _219  and  _222
REMARK   97  A    between atoms: _222  and  _223
REMARK   98  A    between atoms: _225  and  _227
REMARK   99  A    between atoms: _227  and  _228
REMARK  100  A    between atoms: _227  and  _230
REMARK  101  A    between atoms: _230  and  _231
REMARK  102  A    between atoms: _231  and  _232
REMARK  103  A    between atoms: _235  and  _237
REMARK  104  A    between atoms: _237  and  _238
REMARK  105  A    between atoms: _237  and  _240
REMARK  106  A    between atoms: _240  and  _241
REMARK  107  A    between atoms: _243  and  _245
REMARK  108  A    between atoms: _245  and  _246
REMARK  109  A    between atoms: _245  and  _248
REMARK  110  A    between atoms: _248  and  _249
REMARK  111  A    between atoms: _252  and  _254
REMARK  112  A    between atoms: _254  and  _255
REMARK  113  A    between atoms: _254  and  _257
REMARK  114  A    between atoms: _257  and  _258
REMARK  115  A    between atoms: _264  and  _266
REMARK  116  A    between atoms: _266  and  _267
REMARK  117  A    between atoms: _266  and  _269
REMARK  118  A    between atoms: _269  and  _270
REMARK  119  A    between atoms: _270  and  _271
REMARK  120  A    between atoms: _271  and  _272
REMARK  121  A    between atoms: _272  and  _273
REMARK  122  A    between atoms: _277  and  _279
REMARK  123  A    between atoms: _279  and  _280
REMARK  124  A    between atoms: _279  and  _282
REMARK  125  A    between atoms: _282  and  _283
REMARK  126  A    between atoms: _288  and  _290
REMARK  127  A    between atoms: _290  and  _291
REMARK  128  A    between atoms: _290  and  _293
REMARK  129  A    between atoms: _293  and  _294
REMARK  130  A    between atoms: _297  and  _299
REMARK  131  A    between atoms: _299  and  _300
REMARK  132  A    between atoms: _299  and  _302
REMARK  133  A    between atoms: _302  and  _303
REMARK  134  A    between atoms: _303  and  _304
REMARK  135  A    between atoms: _307  and  _309
REMARK  136  A    between atoms: _309  and  _310
REMARK  137  A    between atoms: _309  and  _312
REMARK  138  A    between atoms: _312  and  _313
REMARK  139  A    between atoms: _316  and  _318
REMARK  140  A    between atoms: _318  and  _319
REMARK  141  A    between atoms: _322  and  _324
REMARK  142  A    between atoms: _324  and  _325
REMARK  143  A    between atoms: _324  and  _327
REMARK  144  A    between atoms: _327  and  _328
REMARK  145  A    between atoms: _331  and  _333
REMARK  146  A    between atoms: _333  and  _334
REMARK  147  A    between atoms: _333  and  _336
REMARK  148  A    between atoms: _336  and  _337
REMARK  149  A    between atoms: _340  and  _342
REMARK  150  A    between atoms: _342  and  _343
REMARK  151  A    between atoms: _342  and  _345
REMARK  152  A    between atoms: _345  and  _346
REMARK  153  A    between atoms: _346  and  _347
REMARK  154  A    between atoms: _347  and  _348
REMARK  155  A    between atoms: _357  and  _359
REMARK  156  A    between atoms: _359  and  _360
REMARK  157  A    between atoms: _359  and  _362
REMARK  158  A    between atoms: _362  and  _363
REMARK  159  A    between atoms: _368  and  _370
REMARK  160  A    between atoms: _370  and  _371
REMARK  161  A    between atoms: _370  and  _373
REMARK  162  A    between atoms: _373  and  _374
REMARK  163  A    between atoms: _374  and  _375
REMARK  164  A    between atoms: _380  and  _382
REMARK  165  A    between atoms: _382  and  _383
REMARK  166  A    between atoms: _382  and  _385
REMARK  167  A    between atoms: _385  and  _386
REMARK  168  A    between atoms: _389  and  _391
REMARK  169  A    between atoms: _391  and  _392
REMARK  170  A    between atoms: _391  and  _394
REMARK  171  A    between atoms: _394  and  _395
REMARK  172  A    between atoms: _398  and  _400
REMARK  173  A    between atoms: _400  and  _401
REMARK  174  A    between atoms: _400  and  _403
REMARK  175  A    between atoms: _403  and  _404
REMARK  176  A    between atoms: _407  and  _409
REMARK  177  A    between atoms: _409  and  _410
REMARK  178  A    between atoms: _409  and  _412
REMARK  179  A    between atoms: _412  and  _413
REMARK  180  A    between atoms: _413  and  _414
REMARK  181  A    between atoms: _414  and  _415
REMARK  182  A    between atoms: _415  and  _416
REMARK  183  A    between atoms: _420  and  _422
REMARK  184  A    between atoms: _422  and  _423
REMARK  185  A    between atoms: _422  and  _425
REMARK  186  A    between atoms: _425  and  _426
REMARK  187  A    between atoms: _426  and  _427
REMARK  188  A    between atoms: _427  and  _428
REMARK  189  A    between atoms: _437  and  _439
REMARK  190  A    between atoms: _439  and  _440
REMARK  191  A    between atoms: _439  and  _442
REMARK  192  A    between atoms: _442  and  _443
REMARK  193  A    between atoms: _446  and  _448
REMARK  194  A    between atoms: _448  and  _449
REMARK  195  A    between atoms: _448  and  _451
REMARK  196  A    between atoms: _454  and  _456
REMARK  197  A    between atoms: _456  and  _457
REMARK  198  A    between atoms: _456  and  _459
REMARK  199  A    between atoms: _459  and  _460
REMARK  200  A    between atoms: _460  and  _461
REMARK  201  A    between atoms: _464  and  _466
REMARK  202  A    between atoms: _466  and  _467
REMARK  203  A    between atoms: _466  and  _469
REMARK  204  A    between atoms: _471  and  _473
REMARK  205  A    between atoms: _473  and  _474
REMARK  206  A    between atoms: _473  and  _476
REMARK  207  A    between atoms: _479  and  _481
REMARK  208  A    between atoms: _481  and  _482
REMARK  209  A    between atoms: _481  and  _484
REMARK  210  A    between atoms: _484  and  _485
REMARK  211  A    between atoms: _487  and  _489
REMARK  212  A    between atoms: _489  and  _490
REMARK  213  A    between atoms: _489  and  _492
REMARK  214  A    between atoms: _492  and  _493
REMARK  215  A    between atoms: _496  and  _498
REMARK  216  A    between atoms: _498  and  _499
REMARK  217  A    between atoms: _498  and  _501
REMARK  218  A    between atoms: _501  and  _502
REMARK  219  A    between atoms: _502  and  _503
REMARK  220  A    between atoms: _503  and  _504
REMARK  221  A    between atoms: _513  and  _515
REMARK  222  A    between atoms: _515  and  _516
REMARK  223  A    between atoms: _515  and  _518
REMARK  224  A    between atoms: _521  and  _523
REMARK  225  A    between atoms: _523  and  _524
REMARK  226  A    between atoms: _523  and  _526
REMARK  227  A    between atoms: _526  and  _527
REMARK  228  A    between atoms: _532  and  _533
REMARK                            x       y       z     vdW  Elec       q    Type
REMARK                         _______ _______ _______ _____ _____    ______ ____
ROOT
ATOM      1  CA  ARG A   2      29.126  52.849  27.305  0.00  0.00    +0.137 C 
ENDROOT
BRANCH   1   3
ATOM      2  C   THR A   1      31.171  51.548  27.473  0.00  0.00    +0.241 C 
ATOM      3  N   ARG A   2      30.094  52.045  28.070  0.00  0.00    -0.298 N 
ATOM      4  H   ARG A   2      29.933  51.866  29.082  0.00  0.00    +0.150 HD
ATOM      5  O   THR A   1      31.384  51.726  26.283  0.00  0.00    -0.274 OA
BRANCH   2   6
ATOM      6  CA  THR A   1      32.157  50.735  28.319  0.00  0.00    +0.172 C 
BRANCH   6   7
ATOM      7  N   THR A   1      32.401  51.336  29.638  0.00  0.00    -0.236 NA
ATOM      8  H   THR A   1      32.185  50.797  30.501  0.00  0.00    +0.142 HD
ENDBRANCH   6   7
BRANCH   6   9
ATOM      9  CB  THR A   1      31.704  49.280  28.478  0.00  0.00    +0.135 C 
ATOM     10  CG2 THR A   1      31.430  48.627  27.122  0.00  0.00    +0.034 C 
BRANCH   9  11
ATOM     11  OG1 THR A   1      32.757  48.567  29.117  0.00  0.00    -0.383 OA
ATOM     12  HG1 THR A   1      32.938  48.971  30.003  0.00  0.00    +0.210 HD
ENDBRANCH   9  11
ENDBRANCH   6   9
ENDBRANCH   2   6
ENDBRANCH   1   3
BRANCH   1  13
ATOM     13  C   ARG A   2      29.786  54.085  26.729  0.00  0.00    +0.227 C 
ATOM     14  O   ARG A   2      29.550  54.449  25.574  0.00  0.00    -0.286 OA
ENDBRANCH   1  13
BRANCH   1  15
ATOM     15  CB  ARG A   2      27.923  53.273  28.148  0.00  0.00    +0.031 C 
BRANCH  15  16
ATOM     16  CG  ARG A   2      26.909  52.181  28.394  0.00  0.00    +0.045 C 
BRANCH  16  17
ATOM     17  CD  ARG A   2      25.555  52.800  28.701  0.00  0.00    +0.174 C 
BRANCH  17  18
ATOM     18  NE  ARG A   2      25.646  53.961  29.590  0.00  0.00    -0.265 N 
ATOM     19  CZ  ARG A   2      25.785  53.899  30.915  0.00  0.00    +0.342 C 
ATOM     20  NH2 ARG A   2      25.859  55.028  31.612  0.00  0.00    -0.292 N 
ATOM     21 HH21 ARG A   2      25.967  54.995  32.646  0.00  0.00    +0.255 HD
ATOM     22 HH22 ARG A   2      25.808  55.945  31.124  0.00  0.00    +0.255 HD
ATOM     23  NH1 ARG A   2      25.870  52.726  31.555  0.00  0.00    -0.292 N 
ATOM     24 HH11 ARG A   2      25.978  52.705  32.589  0.00  0.00    +0.255 HD
ATOM     25 HH12 ARG A   2      25.828  51.836  31.018  0.00  0.00    +0.255 HD
ATOM     26  HE  ARG A   2      25.599  54.905  29.155  0.00  0.00    +0.259 HD
ENDBRANCH  17  18
ENDBRANCH  16  17
ENDBRANCH  15  16
ENDBRANCH   1  15
TORSDOF 10
REMARK  Name = ../refined-set-2016/2hnx/2hnx_pocket.pdb
REMARK  228 active torsions:
REMARK  status: ('A' for Active; 'I' for Inactive)
REMARK    1  A    between atoms: _1  and  _3
REMARK    2  A    between atoms: _3  and  _4
REMARK    3  A    between atoms: _3  and  _6
REMARK    4  A    between atoms: _6  and  _7
REMARK    5  A    between atoms: _10  and  _12
REMARK    6  A    between atoms: _12  and  _13
REMARK    7  A    between atoms: _12  and  _15
REMARK    8  A    between atoms: _15  and  _16
REMARK    9  A    between atoms: _18  and  _20
REMARK   10  A    between atoms: _20  and  _21
REMARK   11  A    between atoms: _20  and  _23
REMARK   12  A    between atoms: _23  and  _24
REMARK   13  A    between atoms: _26  and  _28
REMARK   14  A    between atoms: _28  and  _29
REMARK   15  A    between atoms: _28  and  _31
REMARK   16  A    between atoms: _31  and  _32
REMARK   17  A    between atoms: _38  and  _40
REMARK   18  A    between atoms: _40  and  _41
REMARK   19  A    between atoms: _40  and  _43
REMARK   20  A    between atoms: _43  and  _44
REMARK   21  A    between atoms: _49  and  _50
REMARK   22  A    between atoms: _52  and  _54
REMARK   23  A    between atoms: _54  and  _55
REMARK   24  A    between atoms: _54  and  _57
REMARK   25  A    between atoms: _57  and  _58
REMARK   26  A    between atoms: _58  and  _59
REMARK   27  A    between atoms: _61  and  _63
REMARK   28  A    between atoms: _63  and  _64
REMARK   29  A    between atoms: _63  and  _66
REMARK   30  A    between atoms: _66  and  _67
REMARK   31  A    between atoms: _67  and  _68
REMARK   32  A    between atoms: _68  and  _69
REMARK   33  A    between atoms: _69  and  _70
REMARK   34  A    between atoms: _74  and  _76
REMARK   35  A    between atoms: _76  and  _77
REMARK   36  A    between atoms: _76  and  _79
REMARK   37  A    between atoms: _82  and  _84
REMARK   38  A    between atoms: _84  and  _85
REMARK   39  A    between atoms: _84  and  _87
REMARK   40  A    between atoms: _90  and  _92
REMARK   41  A    between atoms: _92  and  _93
REMARK   42  A    between atoms: _95  and  _97
REMARK   43  A    between atoms: _97  and  _98
REMARK   44  A    between atoms: _97  and  _100
REMARK   45  A    between atoms: _100  and  _101
REMARK   46  A    between atoms: _104  and  _106
REMARK   47  A    between atoms: _106  and  _107
REMARK   48  A    between atoms: _106  and  _109
REMARK   49  A    between atoms: _109  and  _110
REMARK   50  A    between atoms: _110  and  _111
REMARK   51  A    between atoms: _111  and  _112
REMARK   52  A    between atoms: _121  and  _123
REMARK   53  A    between atoms: _123  and  _124
REMARK   54  A    between atoms: _123  and  _126
REMARK   55  A    between atoms: _129  and  _131
REMARK   56  A    between atoms: _131  and  _132
REMARK   57  A    between atoms: _135  and  _137
REMARK   58  A    between atoms: _137  and  _138
REMARK   59  A    between atoms: _140  and  _142
REMARK   60  A    between atoms: _142  and  _143
REMARK   61  A    between atoms: _142  and  _145
REMARK   62  A    between atoms: _145  and  _146
REMARK   63  A    between atoms: _146  and  _147
REMARK   64  A    between atoms: _149  and  _151
REMARK   65  A    between atoms: _151  and  _152
REMARK   66  A    between atoms: _155  and  _157
REMARK   67  A    between atoms: _157  and  _158
REMARK   68  A    between atoms: _157  and  _160
REMARK   69  A    between atoms: _160  and  _161
REMARK   70  A    between atoms: _161  and  _162
REMARK   71  A    between atoms: _162  and  _163
REMARK   72  A    between atoms: _163  and  _164
REMARK   73  A    between atoms: _169  and  _170
REMARK   74  A    between atoms: _175  and  _177
REMARK   75  A    between atoms: _177  and  _178
REMARK   76  A    between atoms: _177  and  _180
REMARK   77  A    between atoms: _180  and  _181
REMARK   78  A    between atoms: _186  and  _188
REMARK   79  A    between atoms: _188  and  _189
REMARK   80  A    between atoms: _188  and  _191
REMARK   81  A    between atoms: _191  and  _192
REMARK   82  A    between atoms: _192  and  _193
REMARK   83  A    between atoms: _195  and  _197
REMARK   84  A    between atoms: _197  and  _198
REMARK   85  A    between atoms: _197  and  _200
REMARK   86  A    between atoms: _200  and  _201
REMARK   87  A    between atoms: _204  and  _206
REMARK   88  A    between atoms: _206  and  _207
REMARK   89  A    between atoms: _206  and  _209
REMARK   90  A    between atoms: _209  and  _210
REMARK   91  A    between atoms: _210  and  _211
REMARK   92  A    between atoms: _211  and  _212
REMARK   93  A    between atoms: _212  and  _213
REMARK   94  A    between atoms: _217  and  _219
REMARK   95  A    between atoms: _219  and  _220
REMARK   96  A    between atoms: _219  and  _222
REMARK   97  A    between atoms: _222  and  _223
REMARK   98  A    between atoms: _225  and  _227
REMARK   99  A    between atoms: _227  and  _228
REMARK  100  A    between atoms: _227  and  _230
REMARK  101  A    between atoms: _230  and  _231
REMARK  102  A    between atoms: _231  and  _232
REMARK  103  A    between atoms: _235  and  _237
REMARK  104  A    between atoms: _237  and  _238
REMARK  105  A    between atoms: _237  and  _240
REMARK  106  A    between atoms: _240  and  _241
REMARK  107  A    between atoms: _243  and  _245
REMARK  108  A    between atoms: _245  and  _246
REMARK  109  A    between atoms: _245  and  _248
REMARK  110  A    between atoms: _248  and  _249
REMARK  111  A    between atoms: _252  and  _254
REMARK  112  A    between atoms: _254  and  _255
REMARK  113  A    between atoms: _254  and  _257
REMARK  114  A    between atoms: _257  and  _258
REMARK  115  A    between atoms: _264  and  _266
REMARK  116  A    between atoms: _266  and  _267
REMARK  117  A    between atoms: _266  and  _269
REMARK  118  A    between atoms: _269  and  _270
REMARK  119  A    between atoms: _270  and  _271
REMARK  120  A    between atoms: _271  and  _272
REMARK  121  A    between atoms: _272  and  _273
REMARK  122  A    between atoms: _277  and  _279
REMARK  123  A    between atoms: _279  and  _280
REMARK  124  A    between atoms: _279  and  _282
REMARK  125  A    between atoms: _282  and  _283
REMARK  126  A    between atoms: _288  and  _290
REMARK  127  A    between atoms: _290  and  _291
REMARK  128  A    between atoms: _290  and  _293
REMARK  129  A    between atoms: _293  and  _294
REMARK  130  A    between atoms: _297  and  _299
REMARK  131  A    between atoms: _299  and  _300
REMARK  132  A    between atoms: _299  and  _302
REMARK  133  A    between atoms: _302  and  _303
REMARK  134  A    between atoms: _303  and  _304
REMARK  135  A    between atoms: _307  and  _309
REMARK  136  A    between atoms: _309  and  _310
REMARK  137  A    between atoms: _309  and  _312
REMARK  138  A    between atoms: _312  and  _313
REMARK  139  A    between atoms: _316  and  _318
REMARK  140  A    between atoms: _318  and  _319
REMARK  141  A    between atoms: _322  and  _324
REMARK  142  A    between atoms: _324  and  _325
REMARK  143  A    between atoms: _324  and  _327
REMARK  144  A    between atoms: _327  and  _328
REMARK  145  A    between atoms: _331  and  _333
REMARK  146  A    between atoms: _333  and  _334
REMARK  147  A    between atoms: _333  and  _336
REMARK  148  A    between atoms: _336  and  _337
REMARK  149  A    between atoms: _340  and  _342
REMARK  150  A    between atoms: _342  and  _343
REMARK  151  A    between atoms: _342  and  _345
REMARK  152  A    between atoms: _345  and  _346
REMARK  153  A    between atoms: _346  and  _347
REMARK  154  A    between atoms: _347  and  _348
REMARK  155  A    between atoms: _357  and  _359
REMARK  156  A    between atoms: _359  and  _360
REMARK  157  A    between atoms: _359  and  _362
REMARK  158  A    between atoms: _362  and  _363
REMARK  159  A    between atoms: _368  and  _370
REMARK  160  A    between atoms: _370  and  _371
REMARK  161  A    between atoms: _370  and  _373
REMARK  162  A    between atoms: _373  and  _374
REMARK  163  A    between atoms: _374  and  _375
REMARK  164  A    between atoms: _380  and  _382
REMARK  165  A    between atoms: _382  and  _383
REMARK  166  A    between atoms: _382  and  _385
REMARK  167  A    between atoms: _385  and  _386
REMARK  168  A    between atoms: _389  and  _391
REMARK  169  A    between atoms: _391  and  _392
REMARK  170  A    between atoms: _391  and  _394
REMARK  171  A    between atoms: _394  and  _395
REMARK  172  A    between atoms: _398  and  _400
REMARK  173  A    between atoms: _400  and  _401
REMARK  174  A    between atoms: _400  and  _403
REMARK  175  A    between atoms: _403  and  _404
REMARK  176  A    between atoms: _407  and  _409
REMARK  177  A    between atoms: _409  and  _410
REMARK  178  A    between atoms: _409  and  _412
REMARK  179  A    between atoms: _412  and  _413
REMARK  180  A    between atoms: _413  and  _414
REMARK  181  A    between atoms: _414  and  _415
REMARK  182  A    between atoms: _415  and  _416
REMARK  183  A    between atoms: _420  and  _422
REMARK  184  A    between atoms: _422  and  _423
REMARK  185  A    between atoms: _422  and  _425
REMARK  186  A    between atoms: _425  and  _426
REMARK  187  A    between atoms: _426  and  _427
REMARK  188  A    between atoms: _427  and  _428
REMARK  189  A    between atoms: _437  and  _439
REMARK  190  A    between atoms: _439  and  _440
REMARK  191  A    between atoms: _439  and  _442
REMARK  192  A    between atoms: _442  and  _443
REMARK  193  A    between atoms: _446  and  _448
REMARK  194  A    between atoms: _448  and  _449
REMARK  195  A    between atoms: _448  and  _451
REMARK  196  A    between atoms: _454  and  _456
REMARK  197  A    between atoms: _456  and  _457
REMARK  198  A    between atoms: _456  and  _459
REMARK  199  A    between atoms: _459  and  _460
REMARK  200  A    between atoms: _460  and  _461
REMARK  201  A    between atoms: _464  and  _466
REMARK  202  A    between atoms: _466  and  _467
REMARK  203  A    between atoms: _466  and  _469
REMARK  204  A    between atoms: _471  and  _473
REMARK  205  A    between atoms: _473  and  _474
REMARK  206  A    between atoms: _473  and  _476
REMARK  207  A    between atoms: _479  and  _481
REMARK  208  A    between atoms: _481  and  _482
REMARK  209  A    between atoms: _481  and  _484
REMARK  210  A    between atoms: _484  and  _485
REMARK  211  A    between atoms: _487  and  _489
REMARK  212  A    between atoms: _489  and  _490
REMARK  213  A    between atoms: _489  and  _492
REMARK  214  A    between atoms: _492  and  _493
REMARK  215  A    between atoms: _496  and  _498
REMARK  216  A    between atoms: _498  and  _499
REMARK  217  A    between atoms: _498  and  _501
REMARK  218  A    between atoms: _501  and  _502
REMARK  219  A    between atoms: _502  and  _503
REMARK  220  A    between atoms: _503  and  _504
REMARK  221  A    between atoms: _513  and  _515
REMARK  222  A    between atoms: _515  and  _516
REMARK  223  A    between atoms: _515  and  _518
REMARK  224  A    between atoms: _521  and  _523
REMARK  225  A    between atoms: _523  and  _524
REMARK  226  A    between atoms: _523  and  _526
REMARK  227  A    between atoms: _526  and  _527
REMARK  228  A    between atoms: _532  and  _533
REMARK                            x       y       z     vdW  Elec       q    Type
REMARK                         _______ _______ _______ _____ _____    ______ ____
ROOT
ATOM      1  CA  LYS A   6      32.603  54.946  14.585  0.00  0.00    +0.149 C 
ENDROOT
BRANCH   1   2
ATOM      2  C   LYS A   6      33.037  53.738  13.774  0.00  0.00    +0.244 C 
ATOM      3  N   PRO A   7      32.394  52.581  14.021  0.00  0.00    -0.272 N 
ATOM      4  CD  PRO A   7      31.216  52.345  14.873  0.00  0.00    +0.094 C 
ATOM      5  CG  PRO A   7      31.267  50.882  15.114  0.00  0.00    +0.024 C 
ATOM      6  CB  PRO A   7      32.069  50.245  14.056  0.00  0.00    +0.031 C 
ATOM      7  CA  PRO A   7      32.902  51.354  13.410  0.00  0.00    +0.152 C 
ATOM      8  O   LYS A   6      33.950  53.830  12.965  0.00  0.00    -0.273 OA
BRANCH   7   9
ATOM      9  C   PRO A   7      32.727  51.250  11.910  0.00  0.00    +0.241 C 
ATOM     10  O   PRO A   7      31.861  51.907  11.325  0.00  0.00    -0.273 OA
ATOM     11  N   ASN A   8      33.560  50.405  11.312  0.00  0.00    -0.297 N 
ATOM     12  H   ASN A   8      34.436  50.120  11.795  0.00  0.00    +0.150 HD
BRANCH  11  13
ATOM     13  CA  ASN A   8      33.265  49.872   9.991  0.00  0.00    +0.158 C 
BRANCH  13  14
ATOM     14  C   ASN A   8      32.680  48.479  10.145  0.00  0.00    +0.241 C 
ATOM     15  O   ASN A   8      33.092  47.708  11.015  0.00  0.00    -0.273 OA
ATOM     16  N   MET A   9      31.714  48.174   9.303  0.00  0.00    -0.298 N 
ATOM     17  H   MET A   9      31.371  48.888   8.629  0.00  0.00    +0.150 HD
BRANCH  16  18
ATOM     18  CA  MET A   9      31.128  46.855   9.309  0.00  0.00    +0.138 C 
BRANCH  18  19
ATOM     19  C   MET A   9      31.412  46.247   7.960  0.00  0.00    +0.227 C 
ATOM     20  O   MET A   9      31.139  46.867   6.935  0.00  0.00    -0.286 OA
ENDBRANCH  18  19
BRANCH  18  21
ATOM     21  CB  MET A   9      29.628  46.953   9.566  0.00  0.00    +0.039 C 
BRANCH  21  22
ATOM     22  CG  MET A   9      28.922  45.638   9.520  0.00  0.00    +0.060 C 
BRANCH  22  23
ATOM     23  SD  MET A   9      27.258  45.783  10.136  0.00  0.00    -0.139 S 
ATOM     24  CE  MET A   9      26.644  47.256   9.303  0.00  0.00    +0.069 C 
ENDBRANCH  22  23
ENDBRANCH  21  22
ENDBRANCH  18  21
ENDBRANCH  16  18
ENDBRANCH  13  14
BRANCH  13  25
ATOM     25  CB  ASN A   8      34.514  49.815   9.118  0.00  0.00    +0.114 C 
BRANCH  25  26
ATOM     26  CG  ASN A   8      35.041  51.192   8.765  0.00  0.00    +0.222 C 
ATOM     27  OD1 ASN A   8      34.305  52.183   8.765  0.00  0.00    -0.275 OA
ATOM     28  ND2 ASN A   8      36.336  51.260   8.480  0.00  0.00    -0.329 N 
ATOM     29 HD21 ASN A   8      36.917  50.398   8.493  0.00  0.00    +0.145 HD
ATOM     30 HD22 ASN A   8      36.769  52.176   8.244  0.00  0.00    +0.145 HD
ENDBRANCH  25  26
ENDBRANCH  13  25
ENDBRANCH  11  13
ENDBRANCH   7   9
ENDBRANCH   1   2
BRANCH   1  33
ATOM     31  C   ALA A   5      32.433  54.757  17.019  0.00  0.00    +0.241 C 
ATOM     32  O   ALA A   5      31.207  54.940  17.045  0.00  0.00    -0.273 OA
ATOM     33  N   LYS A   6      33.169  54.774  15.913  0.00  0.00    -0.297 N 
ATOM     34  H   LYS A   6      34.199  54.659  16.001  0.00  0.00    +0.150 HD
BRANCH  31  35
ATOM     35  CA  ALA A   5      33.213  54.487  18.290  0.00  0.00    +0.149 C 
ATOM     36  CB  ALA A   5      33.264  53.004  18.574  0.00  0.00    +0.031 C 
BRANCH  35  38
ATOM     37  C   MET A   4      32.770  56.539  19.495  0.00  0.00    +0.241 C 
ATOM     38  N   ALA A   5      32.670  55.217  19.430  0.00  0.00    -0.297 N 
ATOM     39  H   ALA A   5      32.200  54.697  20.199  0.00  0.00    +0.150 HD
ATOM     40  O   MET A   4      33.136  57.230  18.548  0.00  0.00    -0.273 OA
BRANCH  37  41
ATOM     41  CA  MET A   4      32.380  57.181  20.826  0.00  0.00    +0.149 C 
BRANCH  41  43
ATOM     42  C   GLY A   3      30.236  56.135  21.363  0.00  0.00    +0.243 C 
ATOM     43  N   MET A   4      31.542  56.279  21.621  0.00  0.00    -0.297 N 
ATOM     44  H   MET A   4      31.970  55.740  22.401  0.00  0.00    +0.150 HD
ATOM     45  O   GLY A   3      29.664  56.718  20.437  0.00  0.00    -0.273 OA
BRANCH  42  46
ATOM     46  CA  GLY A   3      29.468  55.173  22.255  0.00  0.00    +0.176 C 
BRANCH  46  48
ATOM     47  C   ALA A   2      30.922  53.219  22.154  0.00  0.00    +0.241 C 
ATOM     48  N   GLY A   3      30.345  54.180  22.871  0.00  0.00    -0.295 N 
ATOM     49  H   GLY A   3      30.523  54.225  23.895  0.00  0.00    +0.150 HD
ATOM     50  O   ALA A   2      30.794  53.124  20.937  0.00  0.00    -0.273 OA
BRANCH  47  51
ATOM     51  CA  ALA A   2      31.808  52.235  22.911  0.00  0.00    +0.149 C 
ATOM     52  CB  ALA A   2      30.982  51.034  23.383  0.00  0.00    +0.031 C 
BRANCH  51  54
ATOM     53  C   VAL A   1      33.443  53.792  23.822  0.00  0.00    +0.238 C 
ATOM     54  N   ALA A   2      32.513  52.871  24.039  0.00  0.00    -0.297 N 
ATOM     55  H   ALA A   2      32.279  52.595  25.014  0.00  0.00    +0.150 HD
ATOM     56  O   VAL A   1      33.784  54.136  22.680  0.00  0.00    -0.274 OA
BRANCH  53  57
ATOM     57  CA  VAL A   1      34.075  54.433  25.059  0.00  0.00    +0.145 C 
BRANCH  57  58
ATOM     58  CB  VAL A   1      35.274  53.610  25.630  0.00  0.00    +0.025 C 
ATOM     59  CG2 VAL A   1      36.021  54.431  26.673  0.00  0.00    +0.002 C 
ATOM     60  CG1 VAL A   1      36.213  53.165  24.523  0.00  0.00    +0.002 C 
ENDBRANCH  57  58
BRANCH  57  61
ATOM     61  N   VAL A   1      33.050  54.692  26.067  0.00  0.00    -0.238 NA
ATOM     62  H   VAL A   1      32.967  54.062  26.890  0.00  0.00    +0.142 HD
ENDBRANCH  57  61
ENDBRANCH  53  57
ENDBRANCH  51  54
ENDBRANCH  47  51
ENDBRANCH  46  48
ENDBRANCH  42  46
ENDBRANCH  41  43
BRANCH  41  63
ATOM     63  CB  MET A   4      33.679  57.531  21.582  0.00  0.00    +0.041 C 
BRANCH  63  64
ATOM     64  CG  MET A   4      33.483  58.511  22.719  0.00  0.00    +0.060 C 
BRANCH  64  65
ATOM     65  SD  MET A   4      33.167  60.165  22.116  0.00  0.00    -0.139 S 
ATOM     66  CE  MET A   4      34.663  60.502  21.189  0.00  0.00    +0.069 C 
ENDBRANCH  64  65
ENDBRANCH  63  64
ENDBRANCH  41  63
ENDBRANCH  37  41
ENDBRANCH  35  38
ENDBRANCH  31  35
ENDBRANCH   1  33
BRANCH   1  67
ATOM     67  CB  LYS A   6      33.106  56.246  13.944  0.00  0.00    +0.029 C 
BRANCH  67  68
ATOM     68  CG  LYS A   6      32.657  57.519  14.672  0.00  0.00    +0.000 C 
BRANCH  68  69
ATOM     69  CD  LYS A   6      31.195  57.837  14.379  0.00  0.00    -0.024 C 
BRANCH  69  70
ATOM     70  CE  LYS A   6      30.747  59.141  15.031  0.00  0.00    -0.086 C 
BRANCH  70  71
ATOM     71  NZ  LYS A   6      29.753  59.873  14.169  0.00  0.00    +0.380 N 
ATOM     72  HZ1 LYS A   6      29.469  60.755  14.642  0.00  0.00    -0.089 HD
ATOM     73  HZ2 LYS A   6      28.917  59.273  14.021  0.00  0.00    -0.089 HD
ATOM     74  HZ3 LYS A   6      30.189  60.095  13.251  0.00  0.00    -0.089 HD
ENDBRANCH  70  71
ENDBRANCH  69  70
ENDBRANCH  68  69
ENDBRANCH  67  68
ENDBRANCH   1  67
TORSDOF 31
REMARK  Name = ../refined-set-2016/2hnx/2hnx_pocket.pdb
REMARK  228 active torsions:
REMARK  status: ('A' for Active; 'I' for Inactive)
REMARK    1  A    between atoms: _1  and  _3
REMARK    2  A    between atoms: _3  and  _4
REMARK    3  A    between atoms: _3  and  _6
REMARK    4  A    between atoms: _6  and  _7
REMARK    5  A    between atoms: _10  and  _12
REMARK    6  A    between atoms: _12  and  _13
REMARK    7  A    between atoms: _12  and  _15
REMARK    8  A    between atoms: _15  and  _16
REMARK    9  A    between atoms: _18  and  _20
REMARK   10  A    between atoms: _20  and  _21
REMARK   11  A    between atoms: _20  and  _23
REMARK   12  A    between atoms: _23  and  _24
REMARK   13  A    between atoms: _26  and  _28
REMARK   14  A    between atoms: _28  and  _29
REMARK   15  A    between atoms: _28  and  _31
REMARK   16  A    between atoms: _31  and  _32
REMARK   17  A    between atoms: _38  and  _40
REMARK   18  A    between atoms: _40  and  _41
REMARK   19  A    between atoms: _40  and  _43
REMARK   20  A    between atoms: _43  and  _44
REMARK   21  A    between atoms: _49  and  _50
REMARK   22  A    between atoms: _52  and  _54
REMARK   23  A    between atoms: _54  and  _55
REMARK   24  A    between atoms: _54  and  _57
REMARK   25  A    between atoms: _57  and  _58
REMARK   26  A    between atoms: _58  and  _59
REMARK   27  A    between atoms: _61  and  _63
REMARK   28  A    between atoms: _63  and  _64
REMARK   29  A    between atoms: _63  and  _66
REMARK   30  A    between atoms: _66  and  _67
REMARK   31  A    between atoms: _67  and  _68
REMARK   32  A    between atoms: _68  and  _69
REMARK   33  A    between atoms: _69  and  _70
REMARK   34  A    between atoms: _74  and  _76
REMARK   35  A    between atoms: _76  and  _77
REMARK   36  A    between atoms: _76  and  _79
REMARK   37  A    between atoms: _82  and  _84
REMARK   38  A    between atoms: _84  and  _85
REMARK   39  A    between atoms: _84  and  _87
REMARK   40  A    between atoms: _90  and  _92
REMARK   41  A    between atoms: _92  and  _93
REMARK   42  A    between atoms: _95  and  _97
REMARK   43  A    between atoms: _97  and  _98
REMARK   44  A    between atoms: _97  and  _100
REMARK   45  A    between atoms: _100  and  _101
REMARK   46  A    between atoms: _104  and  _106
REMARK   47  A    between atoms: _106  and  _107
REMARK   48  A    between atoms: _106  and  _109
REMARK   49  A    between atoms: _109  and  _110
REMARK   50  A    between atoms: _110  and  _111
REMARK   51  A    between atoms: _111  and  _112
REMARK   52  A    between atoms: _121  and  _123
REMARK   53  A    between atoms: _123  and  _124
REMARK   54  A    between atoms: _123  and  _126
REMARK   55  A    between atoms: _129  and  _131
REMARK   56  A    between atoms: _131  and  _132
REMARK   57  A    between atoms: _135  and  _137
REMARK   58  A    between atoms: _137  and  _138
REMARK   59  A    between atoms: _140  and  _142
REMARK   60  A    between atoms: _142  and  _143
REMARK   61  A    between atoms: _142  and  _145
REMARK   62  A    between atoms: _145  and  _146
REMARK   63  A    between atoms: _146  and  _147
REMARK   64  A    between atoms: _149  and  _151
REMARK   65  A    between atoms: _151  and  _152
REMARK   66  A    between atoms: _155  and  _157
REMARK   67  A    between atoms: _157  and  _158
REMARK   68  A    between atoms: _157  and  _160
REMARK   69  A    between atoms: _160  and  _161
REMARK   70  A    between atoms: _161  and  _162
REMARK   71  A    between atoms: _162  and  _163
REMARK   72  A    between atoms: _163  and  _164
REMARK   73  A    between atoms: _169  and  _170
REMARK   74  A    between atoms: _175  and  _177
REMARK   75  A    between atoms: _177  and  _178
REMARK   76  A    between atoms: _177  and  _180
REMARK   77  A    between atoms: _180  and  _181
REMARK   78  A    between atoms: _186  and  _188
REMARK   79  A    between atoms: _188  and  _189
REMARK   80  A    between atoms: _188  and  _191
REMARK   81  A    between atoms: _191  and  _192
REMARK   82  A    between atoms: _192  and  _193
REMARK   83  A    between atoms: _195  and  _197
REMARK   84  A    between atoms: _197  and  _198
REMARK   85  A    between atoms: _197  and  _200
REMARK   86  A    between atoms: _200  and  _201
REMARK   87  A    between atoms: _204  and  _206
REMARK   88  A    between atoms: _206  and  _207
REMARK   89  A    between atoms: _206  and  _209
REMARK   90  A    between atoms: _209  and  _210
REMARK   91  A    between atoms: _210  and  _211
REMARK   92  A    between atoms: _211  and  _212
REMARK   93  A    between atoms: _212  and  _213
REMARK   94  A    between atoms: _217  and  _219
REMARK   95  A    between atoms: _219  and  _220
REMARK   96  A    between atoms: _219  and  _222
REMARK   97  A    between atoms: _222  and  _223
REMARK   98  A    between atoms: _225  and  _227
REMARK   99  A    between atoms: _227  and  _228
REMARK  100  A    between atoms: _227  and  _230
REMARK  101  A    between atoms: _230  and  _231
REMARK  102  A    between atoms: _231  and  _232
REMARK  103  A    between atoms: _235  and  _237
REMARK  104  A    between atoms: _237  and  _238
REMARK  105  A    between atoms: _237  and  _240
REMARK  106  A    between atoms: _240  and  _241
REMARK  107  A    between atoms: _243  and  _245
REMARK  108  A    between atoms: _245  and  _246
REMARK  109  A    between atoms: _245  and  _248
REMARK  110  A    between atoms: _248  and  _249
REMARK  111  A    between atoms: _252  and  _254
REMARK  112  A    between atoms: _254  and  _255
REMARK  113  A    between atoms: _254  and  _257
REMARK  114  A    between atoms: _257  and  _258
REMARK  115  A    between atoms: _264  and  _266
REMARK  116  A    between atoms: _266  and  _267
REMARK  117  A    between atoms: _266  and  _269
REMARK  118  A    between atoms: _269  and  _270
REMARK  119  A    between atoms: _270  and  _271
REMARK  120  A    between atoms: _271  and  _272
REMARK  121  A    between atoms: _272  and  _273
REMARK  122  A    between atoms: _277  and  _279
REMARK  123  A    between atoms: _279  and  _280
REMARK  124  A    between atoms: _279  and  _282
REMARK  125  A    between atoms: _282  and  _283
REMARK  126  A    between atoms: _288  and  _290
REMARK  127  A    between atoms: _290  and  _291
REMARK  128  A    between atoms: _290  and  _293
REMARK  129  A    between atoms: _293  and  _294
REMARK  130  A    between atoms: _297  and  _299
REMARK  131  A    between atoms: _299  and  _300
REMARK  132  A    between atoms: _299  and  _302
REMARK  133  A    between atoms: _302  and  _303
REMARK  134  A    between atoms: _303  and  _304
REMARK  135  A    between atoms: _307  and  _309
REMARK  136  A    between atoms: _309  and  _310
REMARK  137  A    between atoms: _309  and  _312
REMARK  138  A    between atoms: _312  and  _313
REMARK  139  A    between atoms: _316  and  _318
REMARK  140  A    between atoms: _318  and  _319
REMARK  141  A    between atoms: _322  and  _324
REMARK  142  A    between atoms: _324  and  _325
REMARK  143  A    between atoms: _324  and  _327
REMARK  144  A    between atoms: _327  and  _328
REMARK  145  A    between atoms: _331  and  _333
REMARK  146  A    between atoms: _333  and  _334
REMARK  147  A    between atoms: _333  and  _336
REMARK  148  A    between atoms: _336  and  _337
REMARK  149  A    between atoms: _340  and  _342
REMARK  150  A    between atoms: _342  and  _343
REMARK  151  A    between atoms: _342  and  _345
REMARK  152  A    between atoms: _345  and  _346
REMARK  153  A    between atoms: _346  and  _347
REMARK  154  A    between atoms: _347  and  _348
REMARK  155  A    between atoms: _357  and  _359
REMARK  156  A    between atoms: _359  and  _360
REMARK  157  A    between atoms: _359  and  _362
REMARK  158  A    between atoms: _362  and  _363
REMARK  159  A    between atoms: _368  and  _370
REMARK  160  A    between atoms: _370  and  _371
REMARK  161  A    between atoms: _370  and  _373
REMARK  162  A    between atoms: _373  and  _374
REMARK  163  A    between atoms: _374  and  _375
REMARK  164  A    between atoms: _380  and  _382
REMARK  165  A    between atoms: _382  and  _383
REMARK  166  A    between atoms: _382  and  _385
REMARK  167  A    between atoms: _385  and  _386
REMARK  168  A    between atoms: _389  and  _391
REMARK  169  A    between atoms: _391  and  _392
REMARK  170  A    between atoms: _391  and  _394
REMARK  171  A    between atoms: _394  and  _395
REMARK  172  A    between atoms: _398  and  _400
REMARK  173  A    between atoms: _400  and  _401
REMARK  174  A    between atoms: _400  and  _403
REMARK  175  A    between atoms: _403  and  _404
REMARK  176  A    between atoms: _407  and  _409
REMARK  177  A    between atoms: _409  and  _410
REMARK  178  A    between atoms: _409  and  _412
REMARK  179  A    between atoms: _412  and  _413
REMARK  180  A    between atoms: _413  and  _414
REMARK  181  A    between atoms: _414  and  _415
REMARK  182  A    between atoms: _415  and  _416
REMARK  183  A    between atoms: _420  and  _422
REMARK  184  A    between atoms: _422  and  _423
REMARK  185  A    between atoms: _422  and  _425
REMARK  186  A    between atoms: _425  and  _426
REMARK  187  A    between atoms: _426  and  _427
REMARK  188  A    between atoms: _427  and  _428
REMARK  189  A    between atoms: _437  and  _439
REMARK  190  A    between atoms: _439  and  _440
REMARK  191  A    between atoms: _439  and  _442
REMARK  192  A    between atoms: _442  and  _443
REMARK  193  A    between atoms: _446  and  _448
REMARK  194  A    between atoms: _448  and  _449
REMARK  195  A    between atoms: _448  and  _451
REMARK  196  A    between atoms: _454  and  _456
REMARK  197  A    between atoms: _456  and  _457
REMARK  198  A    between atoms: _456  and  _459
REMARK  199  A    between atoms: _459  and  _460
REMARK  200  A    between atoms: _460  and  _461
REMARK  201  A    between atoms: _464  and  _466
REMARK  202  A    between atoms: _466  and  _467
REMARK  203  A    between atoms: _466  and  _469
REMARK  204  A    between atoms: _471  and  _473
REMARK  205  A    between atoms: _473  and  _474
REMARK  206  A    between atoms: _473  and  _476
REMARK  207  A    between atoms: _479  and  _481
REMARK  208  A    between atoms: _481  and  _482
REMARK  209  A    between atoms: _481  and  _484
REMARK  210  A    between atoms: _484  and  _485
REMARK  211  A    between atoms: _487  and  _489
REMARK  212  A    between atoms: _489  and  _490
REMARK  213  A    between atoms: _489  and  _492
REMARK  214  A    between atoms: _492  and  _493
REMARK  215  A    between atoms: _496  and  _498
REMARK  216  A    between atoms: _498  and  _499
REMARK  217  A    between atoms: _498  and  _501
REMARK  218  A    between atoms: _501  and  _502
REMARK  219  A    between atoms: _502  and  _503
REMARK  220  A    between atoms: _503  and  _504
REMARK  221  A    between atoms: _513  and  _515
REMARK  222  A    between atoms: _515  and  _516
REMARK  223  A    between atoms: _515  and  _518
REMARK  224  A    between atoms: _521  and  _523
REMARK  225  A    between atoms: _523  and  _524
REMARK  226  A    between atoms: _523  and  _526
REMARK  227  A    between atoms: _526  and  _527
REMARK  228  A    between atoms: _532  and  _533
REMARK                            x       y       z     vdW  Elec       q    Type
REMARK                         _______ _______ _______ _____ _____    ______ ____
ROOT
ATOM      1  CA  THR A   6      39.005  51.771  17.960  0.00  0.00    +0.176 C 
ENDROOT
BRANCH   1   3
ATOM      2  C   SER A   5      37.756  50.260  16.522  0.00  0.00    +0.243 C 
ATOM      3  N   THR A   6      37.940  51.487  16.996  0.00  0.00    -0.295 N 
ATOM      4  H   THR A   6      37.318  52.258  16.678  0.00  0.00    +0.150 HD
ATOM      5  O   SER A   5      38.475  49.301  16.827  0.00  0.00    -0.273 OA
BRANCH   2   6
ATOM      6  CA  SER A   5      36.589  50.088  15.575  0.00  0.00    +0.178 C 
BRANCH   6   8
ATOM      7  C   GLU A   4      36.062  48.491  13.827  0.00  0.00    +0.241 C 
ATOM      8  N   SER A   5      36.586  48.727  15.028  0.00  0.00    -0.295 N 
ATOM      9  H   SER A   5      36.994  47.945  15.579  0.00  0.00    +0.150 HD
ATOM     10  O   GLU A   4      35.495  49.342  13.166  0.00  0.00    -0.273 OA
BRANCH   7  11
ATOM     11  CA  GLU A   4      36.188  47.080  13.303  0.00  0.00    +0.149 C 
BRANCH  11  14
ATOM     12  C   SER A   3      34.281  45.574  13.594  0.00  0.00    +0.243 C 
ATOM     13  O   SER A   3      34.810  44.972  14.538  0.00  0.00    -0.273 OA
ATOM     14  N   GLU A   4      34.866  46.567  12.915  0.00  0.00    -0.297 N 
ATOM     15  H   GLU A   4      34.377  46.984  12.097  0.00  0.00    +0.150 HD
BRANCH  12  16
ATOM     16  CA  SER A   3      32.894  45.169  13.151  0.00  0.00    +0.178 C 
BRANCH  16  18
ATOM     17  C   LYS A   2      32.657  43.390  11.492  0.00  0.00    +0.241 C 
ATOM     18  N   SER A   3      32.958  43.768  12.730  0.00  0.00    -0.295 N 
ATOM     19  H   SER A   3      33.248  43.047  13.421  0.00  0.00    +0.150 HD
ATOM     20  O   LYS A   2      32.112  44.133  10.671  0.00  0.00    -0.273 OA
BRANCH  17  21
ATOM     21  CA  LYS A   2      32.975  41.943  11.127  0.00  0.00    +0.149 C 
BRANCH  21  24
ATOM     22  C   ILE A   1      31.002  40.520  10.803  0.00  0.00    +0.238 C 
ATOM     23  O   ILE A   1      31.080  40.032  11.913  0.00  0.00    -0.274 OA
ATOM     24  N   LYS A   2      31.892  41.382  10.309  0.00  0.00    -0.297 N 
ATOM     25  H   LYS A   2      31.816  41.666   9.311  0.00  0.00    +0.150 HD
BRANCH  22  26
ATOM     26  CA  ILE A   1      29.842  40.147   9.878  0.00  0.00    +0.145 C 
BRANCH  26  27
ATOM     27  CB  ILE A   1      28.487  40.523  10.532  0.00  0.00    +0.025 C 
ATOM     28  CG2 ILE A   1      28.449  42.029  10.808  0.00  0.00    +0.002 C 
BRANCH  27  29
ATOM     29  CG1 ILE A   1      27.290  40.087   9.667  0.00  0.00    +0.002 C 
ATOM     30  CD1 ILE A   1      25.943  40.392  10.295  0.00  0.00    +0.000 C 
ENDBRANCH  27  29
ENDBRANCH  26  27
BRANCH  26  31
ATOM     31  N   ILE A   1      29.960  38.720   9.578  0.00  0.00    -0.238 NA
ATOM     32  H   ILE A   1      29.939  38.036  10.361  0.00  0.00    +0.142 HD
ENDBRANCH  26  31
ENDBRANCH  22  26
ENDBRANCH  21  24
BRANCH  21  33
ATOM     33  CB  LYS A   2      34.287  41.905  10.345  0.00  0.00    +0.029 C 
BRANCH  33  34
ATOM     34  CG  LYS A   2      34.735  40.537   9.921  0.00  0.00    +0.000 C 
BRANCH  34  35
ATOM     35  CD  LYS A   2      35.961  40.602   9.018  0.00  0.00    -0.024 C 
BRANCH  35  36
ATOM     36  CE  LYS A   2      36.460  39.199   8.691  0.00  0.00    -0.086 C 
BRANCH  36  37
ATOM     37  NZ  LYS A   2      37.661  39.191   7.788  0.00  0.00    +0.380 N 
ATOM     38  HZ1 LYS A   2      38.442  39.703   8.247  0.00  0.00    -0.089 HD
ATOM     39  HZ2 LYS A   2      37.949  38.209   7.605  0.00  0.00    -0.089 HD
ATOM     40  HZ3 LYS A   2      37.421  39.656   6.889  0.00  0.00    -0.089 HD
ENDBRANCH  36  37
ENDBRANCH  35  36
ENDBRANCH  34  35
ENDBRANCH  33  34
ENDBRANCH  21  33
ENDBRANCH  17  21
ENDBRANCH  16  18
BRANCH  16  41
ATOM     41  CB  SER A   3      31.902  45.357  14.308  0.00  0.00    +0.166 C 
BRANCH  41  42
ATOM     42  OG  SER A   3      31.852  46.717  14.748  0.00  0.00    -0.380 OA
ATOM     43  H   SER A   3      32.750  46.995  15.059  0.00  0.00    +0.211 HD
ENDBRANCH  41  42
ENDBRANCH  16  41
ENDBRANCH  12  16
ENDBRANCH  11  14
BRANCH  11  44
ATOM     44  CB  GLU A   4      37.171  47.026  12.129  0.00  0.00    +0.041 C 
BRANCH  44  45
ATOM     45  CG  GLU A   4      37.388  45.607  11.654  0.00  0.00    +0.116 C 
BRANCH  45  46
ATOM     46  CD  GLU A   4      38.390  45.502  10.524  0.00  0.00    +0.365 C 
ATOM     47  OE2 GLU A   4      38.913  44.384  10.323  0.00  0.00    -0.246 OA
ATOM     48  OE1 GLU A   4      38.647  46.516   9.835  0.00  0.00    -0.246 OA
ENDBRANCH  45  46
ENDBRANCH  44  45
ENDBRANCH  11  44
ENDBRANCH   7  11
ENDBRANCH   6   8
BRANCH   6  49
ATOM     49  CB  SER A   5      35.260  50.437  16.277  0.00  0.00    +0.166 C 
BRANCH  49  50
ATOM     50  OG  SER A   5      35.133  49.797  17.529  0.00  0.00    -0.380 OA
ATOM     51  H   SER A   5      35.165  48.816  17.402  0.00  0.00    +0.211 HD
ENDBRANCH  49  50
ENDBRANCH   6  49
ENDBRANCH   2   6
ENDBRANCH   1   3
BRANCH   1  52
ATOM     52  C   THR A   6      38.705  51.100  19.292  0.00  0.00    +0.243 C 
ATOM     53  O   THR A   6      39.614  50.843  20.095  0.00  0.00    -0.273 OA
ATOM     54  N   PHE A   7      37.422  50.811  19.515  0.00  0.00    -0.297 N 
ATOM     55  H   PHE A   7      36.717  51.051  18.789  0.00  0.00    +0.150 HD
BRANCH  54  56
ATOM     56  CA  PHE A   7      36.978  50.167  20.750  0.00  0.00    +0.153 C 
BRANCH  56  57
ATOM     57  C   PHE A   7      37.292  48.675  20.743  0.00  0.00    +0.241 C 
ATOM     58  O   PHE A   7      37.920  48.156  21.675  0.00  0.00    -0.273 OA
ATOM     59  N   LYS A   8      36.860  47.984  19.686  0.00  0.00    -0.297 N 
ATOM     60  H   LYS A   8      36.372  48.479  18.912  0.00  0.00    +0.150 HD
BRANCH  59  61
ATOM     61  CA  LYS A   8      37.064  46.546  19.605  0.00  0.00    +0.149 C 
BRANCH  61  62
ATOM     62  C   LYS A   8      36.888  46.091  18.171  0.00  0.00    +0.241 C 
ATOM     63  N   ASN A   9      37.556  45.000  17.832  0.00  0.00    -0.297 N 
ATOM     64  H   ASN A   9      38.279  44.620  18.476  0.00  0.00    +0.150 HD
ATOM     65  O   LYS A   8      36.210  46.738  17.376  0.00  0.00    -0.273 OA
BRANCH  63  66
ATOM     66  CA  ASN A   9      37.291  44.324  16.568  0.00  0.00    +0.158 C 
BRANCH  66  67
ATOM     67  C   ASN A   9      36.571  43.032  16.878  0.00  0.00    +0.241 C 
ATOM     68  O   ASN A   9      37.063  42.233  17.679  0.00  0.00    -0.273 OA
ATOM     69  N   THR A  10      35.389  42.845  16.301  0.00  0.00    -0.296 N 
ATOM     70  H   THR A  10      34.995  43.578  15.677  0.00  0.00    +0.150 HD
BRANCH  69  71
ATOM     71  CA  THR A  10      34.635  41.605  16.542  0.00  0.00    +0.164 C 
BRANCH  71  72
ATOM     72  CB  THR A  10      33.357  41.837  17.367  0.00  0.00    +0.136 C 
ATOM     73  CG2 THR A  10      33.696  42.375  18.749  0.00  0.00    +0.034 C 
BRANCH  72  74
ATOM     74  OG1 THR A  10      32.510  42.759  16.666  0.00  0.00    -0.382 OA
ATOM     75  HG1 THR A  10      32.989  43.617  16.542  0.00  0.00    +0.210 HD
ENDBRANCH  72  74
ENDBRANCH  71  72
BRANCH  71  76
ATOM     76  C   THR A  10      34.240  40.979  15.221  0.00  0.00    +0.229 C 
ATOM     77  O   THR A  10      34.206  41.643  14.196  0.00  0.00    -0.286 OA
ENDBRANCH  71  76
ENDBRANCH  69  71
ENDBRANCH  66  67
BRANCH  66  78
ATOM     78  CB  ASN A   9      38.588  44.055  15.793  0.00  0.00    +0.114 C 
BRANCH  78  79
ATOM     79  CG  ASN A   9      39.333  45.329  15.435  0.00  0.00    +0.222 C 
ATOM     80  ND2 ASN A   9      40.657  45.281  15.540  0.00  0.00    -0.329 N 
ATOM     81 HD21 ASN A   9      41.123  44.401  15.838  0.00  0.00    +0.145 HD
ATOM     82 HD22 ASN A   9      41.227  46.124  15.324  0.00  0.00    +0.145 HD
ATOM     83  OD1 ASN A   9      38.741  46.340  15.089  0.00  0.00    -0.275 OA
ENDBRANCH  78  79
ENDBRANCH  66  78
ENDBRANCH  63  66
ENDBRANCH  61  62
BRANCH  61  84
ATOM     84  CB  LYS A   8      36.073  45.813  20.520  0.00  0.00    +0.029 C 
BRANCH  84  85
ATOM     85  CG  LYS A   8      36.540  44.451  21.004  0.00  0.00    +0.000 C 
BRANCH  85  86
ATOM     86  CD  LYS A   8      35.686  43.929  22.161  0.00  0.00    -0.024 C 
BRANCH  86  87
ATOM     87  CE  LYS A   8      36.345  44.162  23.523  0.00  0.00    -0.086 C 
BRANCH  87  88
ATOM     88  NZ  LYS A   8      36.441  45.591  23.907  0.00  0.00    +0.380 N 
ATOM     89  HZ1 LYS A   8      36.897  45.669  24.838  0.00  0.00    -0.089 HD
ATOM     90  HZ2 LYS A   8      35.487  46.002  23.952  0.00  0.00    -0.089 HD
ATOM     91  HZ3 LYS A   8      37.007  46.102  23.199  0.00  0.00    -0.089 HD
ENDBRANCH  87  88
ENDBRANCH  86  87
ENDBRANCH  85  86
ENDBRANCH  84  85
ENDBRANCH  61  84
ENDBRANCH  59  61
ENDBRANCH  56  57
BRANCH  56  92
ATOM     92  CB  PHE A   7      35.489  50.422  20.994  0.00  0.00    +0.055 C 
BRANCH  92  93
ATOM     93  CG  PHE A   7      34.921  49.630  22.141  0.00  0.00    -0.020 A 
ATOM     94  CD2 PHE A   7      35.379  49.825  23.440  0.00  0.00    -0.004 A 
ATOM     95  CE2 PHE A   7      34.852  49.084  24.512  0.00  0.00    -0.000 A 
ATOM     96  CZ  PHE A   7      33.865  48.145  24.275  0.00  0.00    -0.000 A 
ATOM     97  CE1 PHE A   7      33.402  47.943  22.981  0.00  0.00    -0.000 A 
ATOM     98  CD1 PHE A   7      33.929  48.684  21.919  0.00  0.00    -0.004 A 
ENDBRANCH  92  93
ENDBRANCH  56  92
ENDBRANCH  54  56
ENDBRANCH   1  52
BRANCH   1  99
ATOM     99  CB  THR A   6      39.145  53.285  18.173  0.00  0.00    +0.137 C 
ATOM    100  CG2 THR A   6      39.697  53.937  16.918  0.00  0.00    +0.034 C 
BRANCH  99 101
ATOM    101  OG1 THR A   6      37.853  53.822  18.455  0.00  0.00    -0.382 OA
ATOM    102  HG1 THR A   6      37.926  54.799  18.595  0.00  0.00    +0.210 HD
ENDBRANCH  99 101
ENDBRANCH   1  99
TORSDOF 47
REMARK  Name = ../refined-set-2016/2hnx/2hnx_pocket.pdb
REMARK  228 active torsions:
REMARK  status: ('A' for Active; 'I' for Inactive)
REMARK    1  A    between atoms: _1  and  _3
REMARK    2  A    between atoms: _3  and  _4
REMARK    3  A    between atoms: _3  and  _6
REMARK    4  A    between atoms: _6  and  _7
REMARK    5  A    between atoms: _10  and  _12
REMARK    6  A    between atoms: _12  and  _13
REMARK    7  A    between atoms: _12  and  _15
REMARK    8  A    between atoms: _15  and  _16
REMARK    9  A    between atoms: _18  and  _20
REMARK   10  A    between atoms: _20  and  _21
REMARK   11  A    between atoms: _20  and  _23
REMARK   12  A    between atoms: _23  and  _24
REMARK   13  A    between atoms: _26  and  _28
REMARK   14  A    between atoms: _28  and  _29
REMARK   15  A    between atoms: _28  and  _31
REMARK   16  A    between atoms: _31  and  _32
REMARK   17  A    between atoms: _38  and  _40
REMARK   18  A    between atoms: _40  and  _41
REMARK   19  A    between atoms: _40  and  _43
REMARK   20  A    between atoms: _43  and  _44
REMARK   21  A    between atoms: _49  and  _50
REMARK   22  A    between atoms: _52  and  _54
REMARK   23  A    between atoms: _54  and  _55
REMARK   24  A    between atoms: _54  and  _57
REMARK   25  A    between atoms: _57  and  _58
REMARK   26  A    between atoms: _58  and  _59
REMARK   27  A    between atoms: _61  and  _63
REMARK   28  A    between atoms: _63  and  _64
REMARK   29  A    between atoms: _63  and  _66
REMARK   30  A    between atoms: _66  and  _67
REMARK   31  A    between atoms: _67  and  _68
REMARK   32  A    between atoms: _68  and  _69
REMARK   33  A    between atoms: _69  and  _70
REMARK   34  A    between atoms: _74  and  _76
REMARK   35  A    between atoms: _76  and  _77
REMARK   36  A    between atoms: _76  and  _79
REMARK   37  A    between atoms: _82  and  _84
REMARK   38  A    between atoms: _84  and  _85
REMARK   39  A    between atoms: _84  and  _87
REMARK   40  A    between atoms: _90  and  _92
REMARK   41  A    between atoms: _92  and  _93
REMARK   42  A    between atoms: _95  and  _97
REMARK   43  A    between atoms: _97  and  _98
REMARK   44  A    between atoms: _97  and  _100
REMARK   45  A    between atoms: _100  and  _101
REMARK   46  A    between atoms: _104  and  _106
REMARK   47  A    between atoms: _106  and  _107
REMARK   48  A    between atoms: _106  and  _109
REMARK   49  A    between atoms: _109  and  _110
REMARK   50  A    between atoms: _110  and  _111
REMARK   51  A    between atoms: _111  and  _112
REMARK   52  A    between atoms: _121  and  _123
REMARK   53  A    between atoms: _123  and  _124
REMARK   54  A    between atoms: _123  and  _126
REMARK   55  A    between atoms: _129  and  _131
REMARK   56  A    between atoms: _131  and  _132
REMARK   57  A    between atoms: _135  and  _137
REMARK   58  A    between atoms: _137  and  _138
REMARK   59  A    between atoms: _140  and  _142
REMARK   60  A    between atoms: _142  and  _143
REMARK   61  A    between atoms: _142  and  _145
REMARK   62  A    between atoms: _145  and  _146
REMARK   63  A    between atoms: _146  and  _147
REMARK   64  A    between atoms: _149  and  _151
REMARK   65  A    between atoms: _151  and  _152
REMARK   66  A    between atoms: _155  and  _157
REMARK   67  A    between atoms: _157  and  _158
REMARK   68  A    between atoms: _157  and  _160
REMARK   69  A    between atoms: _160  and  _161
REMARK   70  A    between atoms: _161  and  _162
REMARK   71  A    between atoms: _162  and  _163
REMARK   72  A    between atoms: _163  and  _164
REMARK   73  A    between atoms: _169  and  _170
REMARK   74  A    between atoms: _175  and  _177
REMARK   75  A    between atoms: _177  and  _178
REMARK   76  A    between atoms: _177  and  _180
REMARK   77  A    between atoms: _180  and  _181
REMARK   78  A    between atoms: _186  and  _188
REMARK   79  A    between atoms: _188  and  _189
REMARK   80  A    between atoms: _188  and  _191
REMARK   81  A    between atoms: _191  and  _192
REMARK   82  A    between atoms: _192  and  _193
REMARK   83  A    between atoms: _195  and  _197
REMARK   84  A    between atoms: _197  and  _198
REMARK   85  A    between atoms: _197  and  _200
REMARK   86  A    between atoms: _200  and  _201
REMARK   87  A    between atoms: _204  and  _206
REMARK   88  A    between atoms: _206  and  _207
REMARK   89  A    between atoms: _206  and  _209
REMARK   90  A    between atoms: _209  and  _210
REMARK   91  A    between atoms: _210  and  _211
REMARK   92  A    between atoms: _211  and  _212
REMARK   93  A    between atoms: _212  and  _213
REMARK   94  A    between atoms: _217  and  _219
REMARK   95  A    between atoms: _219  and  _220
REMARK   96  A    between atoms: _219  and  _222
REMARK   97  A    between atoms: _222  and  _223
REMARK   98  A    between atoms: _225  and  _227
REMARK   99  A    between atoms: _227  and  _228
REMARK  100  A    between atoms: _227  and  _230
REMARK  101  A    between atoms: _230  and  _231
REMARK  102  A    between atoms: _231  and  _232
REMARK  103  A    between atoms: _235  and  _237
REMARK  104  A    between atoms: _237  and  _238
REMARK  105  A    between atoms: _237  and  _240
REMARK  106  A    between atoms: _240  and  _241
REMARK  107  A    between atoms: _243  and  _245
REMARK  108  A    between atoms: _245  and  _246
REMARK  109  A    between atoms: _245  and  _248
REMARK  110  A    between atoms: _248  and  _249
REMARK  111  A    between atoms: _252  and  _254
REMARK  112  A    between atoms: _254  and  _255
REMARK  113  A    between atoms: _254  and  _257
REMARK  114  A    between atoms: _257  and  _258
REMARK  115  A    between atoms: _264  and  _266
REMARK  116  A    between atoms: _266  and  _267
REMARK  117  A    between atoms: _266  and  _269
REMARK  118  A    between atoms: _269  and  _270
REMARK  119  A    between atoms: _270  and  _271
REMARK  120  A    between atoms: _271  and  _272
REMARK  121  A    between atoms: _272  and  _273
REMARK  122  A    between atoms: _277  and  _279
REMARK  123  A    between atoms: _279  and  _280
REMARK  124  A    between atoms: _279  and  _282
REMARK  125  A    between atoms: _282  and  _283
REMARK  126  A    between atoms: _288  and  _290
REMARK  127  A    between atoms: _290  and  _291
REMARK  128  A    between atoms: _290  and  _293
REMARK  129  A    between atoms: _293  and  _294
REMARK  130  A    between atoms: _297  and  _299
REMARK  131  A    between atoms: _299  and  _300
REMARK  132  A    between atoms: _299  and  _302
REMARK  133  A    between atoms: _302  and  _303
REMARK  134  A    between atoms: _303  and  _304
REMARK  135  A    between atoms: _307  and  _309
REMARK  136  A    between atoms: _309  and  _310
REMARK  137  A    between atoms: _309  and  _312
REMARK  138  A    between atoms: _312  and  _313
REMARK  139  A    between atoms: _316  and  _318
REMARK  140  A    between atoms: _318  and  _319
REMARK  141  A    between atoms: _322  and  _324
REMARK  142  A    between atoms: _324  and  _325
REMARK  143  A    between atoms: _324  and  _327
REMARK  144  A    between atoms: _327  and  _328
REMARK  145  A    between atoms: _331  and  _333
REMARK  146  A    between atoms: _333  and  _334
REMARK  147  A    between atoms: _333  and  _336
REMARK  148  A    between atoms: _336  and  _337
REMARK  149  A    between atoms: _340  and  _342
REMARK  150  A    between atoms: _342  and  _343
REMARK  151  A    between atoms: _342  and  _345
REMARK  152  A    between atoms: _345  and  _346
REMARK  153  A    between atoms: _346  and  _347
REMARK  154  A    between atoms: _347  and  _348
REMARK  155  A    between atoms: _357  and  _359
REMARK  156  A    between atoms: _359  and  _360
REMARK  157  A    between atoms: _359  and  _362
REMARK  158  A    between atoms: _362  and  _363
REMARK  159  A    between atoms: _368  and  _370
REMARK  160  A    between atoms: _370  and  _371
REMARK  161  A    between atoms: _370  and  _373
REMARK  162  A    between atoms: _373  and  _374
REMARK  163  A    between atoms: _374  and  _375
REMARK  164  A    between atoms: _380  and  _382
REMARK  165  A    between atoms: _382  and  _383
REMARK  166  A    between atoms: _382  and  _385
REMARK  167  A    between atoms: _385  and  _386
REMARK  168  A    between atoms: _389  and  _391
REMARK  169  A    between atoms: _391  and  _392
REMARK  170  A    between atoms: _391  and  _394
REMARK  171  A    between atoms: _394  and  _395
REMARK  172  A    between atoms: _398  and  _400
REMARK  173  A    between atoms: _400  and  _401
REMARK  174  A    between atoms: _400  and  _403
REMARK  175  A    between atoms: _403  and  _404
REMARK  176  A    between atoms: _407  and  _409
REMARK  177  A    between atoms: _409  and  _410
REMARK  178  A    between atoms: _409  and  _412
REMARK  179  A    between atoms: _412  and  _413
REMARK  180  A    between atoms: _413  and  _414
REMARK  181  A    between atoms: _414  and  _415
REMARK  182  A    between atoms: _415  and  _416
REMARK  183  A    between atoms: _420  and  _422
REMARK  184  A    between atoms: _422  and  _423
REMARK  185  A    between atoms: _422  and  _425
REMARK  186  A    between atoms: _425  and  _426
REMARK  187  A    between atoms: _426  and  _427
REMARK  188  A    between atoms: _427  and  _428
REMARK  189  A    between atoms: _437  and  _439
REMARK  190  A    between atoms: _439  and  _440
REMARK  191  A    between atoms: _439  and  _442
REMARK  192  A    between atoms: _442  and  _443
REMARK  193  A    between atoms: _446  and  _448
REMARK  194  A    between atoms: _448  and  _449
REMARK  195  A    between atoms: _448  and  _451
REMARK  196  A    between atoms: _454  and  _456
REMARK  197  A    between atoms: _456  and  _457
REMARK  198  A    between atoms: _456  and  _459
REMARK  199  A    between atoms: _459  and  _460
REMARK  200  A    between atoms: _460  and  _461
REMARK  201  A    between atoms: _464  and  _466
REMARK  202  A    between atoms: _466  and  _467
REMARK  203  A    between atoms: _466  and  _469
REMARK  204  A    between atoms: _471  and  _473
REMARK  205  A    between atoms: _473  and  _474
REMARK  206  A    between atoms: _473  and  _476
REMARK  207  A    between atoms: _479  and  _481
REMARK  208  A    between atoms: _481  and  _482
REMARK  209  A    between atoms: _481  and  _484
REMARK  210  A    between atoms: _484  and  _485
REMARK  211  A    between atoms: _487  and  _489
REMARK  212  A    between atoms: _489  and  _490
REMARK  213  A    between atoms: _489  and  _492
REMARK  214  A    between atoms: _492  and  _493
REMARK  215  A    between atoms: _496  and  _498
REMARK  216  A    between atoms: _498  and  _499
REMARK  217  A    between atoms: _498  and  _501
REMARK  218  A    between atoms: _501  and  _502
REMARK  219  A    between atoms: _502  and  _503
REMARK  220  A    between atoms: _503  and  _504
REMARK  221  A    between atoms: _513  and  _515
REMARK  222  A    between atoms: _515  and  _516
REMARK  223  A    between atoms: _515  and  _518
REMARK  224  A    between atoms: _521  and  _523
REMARK  225  A    between atoms: _523  and  _524
REMARK  226  A    between atoms: _523  and  _526
REMARK  227  A    between atoms: _526  and  _527
REMARK  228  A    between atoms: _532  and  _533
REMARK                            x       y       z     vdW  Elec       q    Type
REMARK                         _______ _______ _______ _____ _____    ______ ____
ROOT
ATOM      1  CA  GLU A   1      28.569  34.980  20.592  0.00  0.00    +0.134 C 
ENDROOT
BRANCH   1   2
ATOM      2  N   GLU A   1      27.993  33.703  20.915  0.00  0.00    -0.239 NA
ATOM      3  H   GLU A   1      27.322  33.632  21.706  0.00  0.00    +0.142 HD
ENDBRANCH   1   2
BRANCH   1   4
ATOM      4  C   GLU A   1      29.058  35.613  21.891  0.00  0.00    +0.224 C 
ATOM      5  O   GLU A   1      28.351  35.592  22.895  0.00  0.00    -0.287 OA
ENDBRANCH   1   4
BRANCH   1   6
ATOM      6  CB  GLU A   1      27.516  35.865  19.901  0.00  0.00    +0.037 C 
BRANCH   6   7
ATOM      7  CG  GLU A   1      28.018  37.275  19.566  0.00  0.00    +0.116 C 
BRANCH   7   8
ATOM      8  CD  GLU A   1      26.970  38.116  18.840  0.00  0.00    +0.365 C 
ATOM      9  OE2 GLU A   1      25.794  37.699  18.785  0.00  0.00    -0.246 OA
ATOM     10  OE1 GLU A   1      27.310  39.200  18.341  0.00  0.00    -0.246 OA
ENDBRANCH   7   8
ENDBRANCH   6   7
ENDBRANCH   1   6
TORSDOF 5
REMARK  Name = ../refined-set-2016/2hnx/2hnx_pocket.pdb
REMARK  228 active torsions:
REMARK  status: ('A' for Active; 'I' for Inactive)
REMARK    1  A    between atoms: _1  and  _3
REMARK    2  A    between atoms: _3  and  _4
REMARK    3  A    between atoms: _3  and  _6
REMARK    4  A    between atoms: _6  and  _7
REMARK    5  A    between atoms: _10  and  _12
REMARK    6  A    between atoms: _12  and  _13
REMARK    7  A    between atoms: _12  and  _15
REMARK    8  A    between atoms: _15  and  _16
REMARK    9  A    between atoms: _18  and  _20
REMARK   10  A    between atoms: _20  and  _21
REMARK   11  A    between atoms: _20  and  _23
REMARK   12  A    between atoms: _23  and  _24
REMARK   13  A    between atoms: _26  and  _28
REMARK   14  A    between atoms: _28  and  _29
REMARK   15  A    between atoms: _28  and  _31
REMARK   16  A    between atoms: _31  and  _32
REMARK   17  A    between atoms: _38  and  _40
REMARK   18  A    between atoms: _40  and  _41
REMARK   19  A    between atoms: _40  and  _43
REMARK   20  A    between atoms: _43  and  _44
REMARK   21  A    between atoms: _49  and  _50
REMARK   22  A    between atoms: _52  and  _54
REMARK   23  A    between atoms: _54  and  _55
REMARK   24  A    between atoms: _54  and  _57
REMARK   25  A    between atoms: _57  and  _58
REMARK   26  A    between atoms: _58  and  _59
REMARK   27  A    between atoms: _61  and  _63
REMARK   28  A    between atoms: _63  and  _64
REMARK   29  A    between atoms: _63  and  _66
REMARK   30  A    between atoms: _66  and  _67
REMARK   31  A    between atoms: _67  and  _68
REMARK   32  A    between atoms: _68  and  _69
REMARK   33  A    between atoms: _69  and  _70
REMARK   34  A    between atoms: _74  and  _76
REMARK   35  A    between atoms: _76  and  _77
REMARK   36  A    between atoms: _76  and  _79
REMARK   37  A    between atoms: _82  and  _84
REMARK   38  A    between atoms: _84  and  _85
REMARK   39  A    between atoms: _84  and  _87
REMARK   40  A    between atoms: _90  and  _92
REMARK   41  A    between atoms: _92  and  _93
REMARK   42  A    between atoms: _95  and  _97
REMARK   43  A    between atoms: _97  and  _98
REMARK   44  A    between atoms: _97  and  _100
REMARK   45  A    between atoms: _100  and  _101
REMARK   46  A    between atoms: _104  and  _106
REMARK   47  A    between atoms: _106  and  _107
REMARK   48  A    between atoms: _106  and  _109
REMARK   49  A    between atoms: _109  and  _110
REMARK   50  A    between atoms: _110  and  _111
REMARK   51  A    between atoms: _111  and  _112
REMARK   52  A    between atoms: _121  and  _123
REMARK   53  A    between atoms: _123  and  _124
REMARK   54  A    between atoms: _123  and  _126
REMARK   55  A    between atoms: _129  and  _131
REMARK   56  A    between atoms: _131  and  _132
REMARK   57  A    between atoms: _135  and  _137
REMARK   58  A    between atoms: _137  and  _138
REMARK   59  A    between atoms: _140  and  _142
REMARK   60  A    between atoms: _142  and  _143
REMARK   61  A    between atoms: _142  and  _145
REMARK   62  A    between atoms: _145  and  _146
REMARK   63  A    between atoms: _146  and  _147
REMARK   64  A    between atoms: _149  and  _151
REMARK   65  A    between atoms: _151  and  _152
REMARK   66  A    between atoms: _155  and  _157
REMARK   67  A    between atoms: _157  and  _158
REMARK   68  A    between atoms: _157  and  _160
REMARK   69  A    between atoms: _160  and  _161
REMARK   70  A    between atoms: _161  and  _162
REMARK   71  A    between atoms: _162  and  _163
REMARK   72  A    between atoms: _163  and  _164
REMARK   73  A    between atoms: _169  and  _170
REMARK   74  A    between atoms: _175  and  _177
REMARK   75  A    between atoms: _177  and  _178
REMARK   76  A    between atoms: _177  and  _180
REMARK   77  A    between atoms: _180  and  _181
REMARK   78  A    between atoms: _186  and  _188
REMARK   79  A    between atoms: _188  and  _189
REMARK   80  A    between atoms: _188  and  _191
REMARK   81  A    between atoms: _191  and  _192
REMARK   82  A    between atoms: _192  and  _193
REMARK   83  A    between atoms: _195  and  _197
REMARK   84  A    between atoms: _197  and  _198
REMARK   85  A    between atoms: _197  and  _200
REMARK   86  A    between atoms: _200  and  _201
REMARK   87  A    between atoms: _204  and  _206
REMARK   88  A    between atoms: _206  and  _207
REMARK   89  A    between atoms: _206  and  _209
REMARK   90  A    between atoms: _209  and  _210
REMARK   91  A    between atoms: _210  and  _211
REMARK   92  A    between atoms: _211  and  _212
REMARK   93  A    between atoms: _212  and  _213
REMARK   94  A    between atoms: _217  and  _219
REMARK   95  A    between atoms: _219  and  _220
REMARK   96  A    between atoms: _219  and  _222
REMARK   97  A    between atoms: _222  and  _223
REMARK   98  A    between atoms: _225  and  _227
REMARK   99  A    between atoms: _227  and  _228
REMARK  100  A    between atoms: _227  and  _230
REMARK  101  A    between atoms: _230  and  _231
REMARK  102  A    between atoms: _231  and  _232
REMARK  103  A    between atoms: _235  and  _237
REMARK  104  A    between atoms: _237  and  _238
REMARK  105  A    between atoms: _237  and  _240
REMARK  106  A    between atoms: _240  and  _241
REMARK  107  A    between atoms: _243  and  _245
REMARK  108  A    between atoms: _245  and  _246
REMARK  109  A    between atoms: _245  and  _248
REMARK  110  A    between atoms: _248  and  _249
REMARK  111  A    between atoms: _252  and  _254
REMARK  112  A    between atoms: _254  and  _255
REMARK  113  A    between atoms: _254  and  _257
REMARK  114  A    between atoms: _257  and  _258
REMARK  115  A    between atoms: _264  and  _266
REMARK  116  A    between atoms: _266  and  _267
REMARK  117  A    between atoms: _266  and  _269
REMARK  118  A    between atoms: _269  and  _270
REMARK  119  A    between atoms: _270  and  _271
REMARK  120  A    between atoms: _271  and  _272
REMARK  121  A    between atoms: _272  and  _273
REMARK  122  A    between atoms: _277  and  _279
REMARK  123  A    between atoms: _279  and  _280
REMARK  124  A    between atoms: _279  and  _282
REMARK  125  A    between atoms: _282  and  _283
REMARK  126  A    between atoms: _288  and  _290
REMARK  127  A    between atoms: _290  and  _291
REMARK  128  A    between atoms: _290  and  _293
REMARK  129  A    between atoms: _293  and  _294
REMARK  130  A    between atoms: _297  and  _299
REMARK  131  A    between atoms: _299  and  _300
REMARK  132  A    between atoms: _299  and  _302
REMARK  133  A    between atoms: _302  and  _303
REMARK  134  A    between atoms: _303  and  _304
REMARK  135  A    between atoms: _307  and  _309
REMARK  136  A    between atoms: _309  and  _310
REMARK  137  A    between atoms: _309  and  _312
REMARK  138  A    between atoms: _312  and  _313
REMARK  139  A    between atoms: _316  and  _318
REMARK  140  A    between atoms: _318  and  _319
REMARK  141  A    between atoms: _322  and  _324
REMARK  142  A    between atoms: _324  and  _325
REMARK  143  A    between atoms: _324  and  _327
REMARK  144  A    between atoms: _327  and  _328
REMARK  145  A    between atoms: _331  and  _333
REMARK  146  A    between atoms: _333  and  _334
REMARK  147  A    between atoms: _333  and  _336
REMARK  148  A    between atoms: _336  and  _337
REMARK  149  A    between atoms: _340  and  _342
REMARK  150  A    between atoms: _342  and  _343
REMARK  151  A    between atoms: _342  and  _345
REMARK  152  A    between atoms: _345  and  _346
REMARK  153  A    between atoms: _346  and  _347
REMARK  154  A    between atoms: _347  and  _348
REMARK  155  A    between atoms: _357  and  _359
REMARK  156  A    between atoms: _359  and  _360
REMARK  157  A    between atoms: _359  and  _362
REMARK  158  A    between atoms: _362  and  _363
REMARK  159  A    between atoms: _368  and  _370
REMARK  160  A    between atoms: _370  and  _371
REMARK  161  A    between atoms: _370  and  _373
REMARK  162  A    between atoms: _373  and  _374
REMARK  163  A    between atoms: _374  and  _375
REMARK  164  A    between atoms: _380  and  _382
REMARK  165  A    between atoms: _382  and  _383
REMARK  166  A    between atoms: _382  and  _385
REMARK  167  A    between atoms: _385  and  _386
REMARK  168  A    between atoms: _389  and  _391
REMARK  169  A    between atoms: _391  and  _392
REMARK  170  A    between atoms: _391  and  _394
REMARK  171  A    between atoms: _394  and  _395
REMARK  172  A    between atoms: _398  and  _400
REMARK  173  A    between atoms: _400  and  _401
REMARK  174  A    between atoms: _400  and  _403
REMARK  175  A    between atoms: _403  and  _404
REMARK  176  A    between atoms: _407  and  _409
REMARK  177  A    between atoms: _409  and  _410
REMARK  178  A    between atoms: _409  and  _412
REMARK  179  A    between atoms: _412  and  _413
REMARK  180  A    between atoms: _413  and  _414
REMARK  181  A    between atoms: _414  and  _415
REMARK  182  A    between atoms: _415  and  _416
REMARK  183  A    between atoms: _420  and  _422
REMARK  184  A    between atoms: _422  and  _423
REMARK  185  A    between atoms: _422  and  _425
REMARK  186  A    between atoms: _425  and  _426
REMARK  187  A    between atoms: _426  and  _427
REMARK  188  A    between atoms: _427  and  _428
REMARK  189  A    between atoms: _437  and  _439
REMARK  190  A    between atoms: _439  and  _440
REMARK  191  A    between atoms: _439  and  _442
REMARK  192  A    between atoms: _442  and  _443
REMARK  193  A    between atoms: _446  and  _448
REMARK  194  A    between atoms: _448  and  _449
REMARK  195  A    between atoms: _448  and  _451
REMARK  196  A    between atoms: _454  and  _456
REMARK  197  A    between atoms: _456  and  _457
REMARK  198  A    between atoms: _456  and  _459
REMARK  199  A    between atoms: _459  and  _460
REMARK  200  A    between atoms: _460  and  _461
REMARK  201  A    between atoms: _464  and  _466
REMARK  202  A    between atoms: _466  and  _467
REMARK  203  A    between atoms: _466  and  _469
REMARK  204  A    between atoms: _471  and  _473
REMARK  205  A    between atoms: _473  and  _474
REMARK  206  A    between atoms: _473  and  _476
REMARK  207  A    between atoms: _479  and  _481
REMARK  208  A    between atoms: _481  and  _482
REMARK  209  A    between atoms: _481  and  _484
REMARK  210  A    between atoms: _484  and  _485
REMARK  211  A    between atoms: _487  and  _489
REMARK  212  A    between atoms: _489  and  _490
REMARK  213  A    between atoms: _489  and  _492
REMARK  214  A    between atoms: _492  and  _493
REMARK  215  A    between atoms: _496  and  _498
REMARK  216  A    between atoms: _498  and  _499
REMARK  217  A    between atoms: _498  and  _501
REMARK  218  A    between atoms: _501  and  _502
REMARK  219  A    between atoms: _502  and  _503
REMARK  220  A    between atoms: _503  and  _504
REMARK  221  A    between atoms: _513  and  _515
REMARK  222  A    between atoms: _515  and  _516
REMARK  223  A    between atoms: _515  and  _518
REMARK  224  A    between atoms: _521  and  _523
REMARK  225  A    between atoms: _523  and  _524
REMARK  226  A    between atoms: _523  and  _526
REMARK  227  A    between atoms: _526  and  _527
REMARK  228  A    between atoms: _532  and  _533
REMARK                            x       y       z     vdW  Elec       q    Type
REMARK                         _______ _______ _______ _____ _____    ______ ____
ROOT
ATOM      1  C   ASP A   3      30.857  43.347  26.721  0.00  0.00    +0.241 C 
ATOM      2  O   ASP A   3      30.660  43.455  27.949  0.00  0.00    -0.273 OA
ATOM      3  N   ASP A   4      31.266  42.219  26.139  0.00  0.00    -0.297 N 
ATOM      4  H   ASP A   4      31.319  42.197  25.101  0.00  0.00    +0.150 HD
ENDROOT
BRANCH   3   5
ATOM      5  CA  ASP A   4      31.648  41.001  26.877  0.00  0.00    +0.160 C 
BRANCH   5   6
ATOM      6  C   ASP A   4      30.474  40.236  27.512  0.00  0.00    +0.241 C 
ATOM      7  O   ASP A   4      30.627  39.565  28.536  0.00  0.00    -0.273 OA
ATOM      8  N   ARG A   5      29.299  40.330  26.891  0.00  0.00    -0.298 N 
ATOM      9  H   ARG A   5      29.156  41.065  26.169  0.00  0.00    +0.150 HD
BRANCH   8  10
ATOM     10  CA  ARG A   5      28.217  39.419  27.210  0.00  0.00    +0.137 C 
BRANCH  10  11
ATOM     11  C   ARG A   5      28.475  38.111  26.479  0.00  0.00    +0.227 C 
ATOM     12  O   ARG A   5      28.936  38.123  25.330  0.00  0.00    -0.286 OA
ENDBRANCH  10  11
BRANCH  10  13
ATOM     13  CB  ARG A   5      26.862  39.980  26.783  0.00  0.00    +0.031 C 
BRANCH  13  14
ATOM     14  CG  ARG A   5      26.239  40.962  27.776  0.00  0.00    +0.045 C 
BRANCH  14  15
ATOM     15  CD  ARG A   5      24.970  41.595  27.190  0.00  0.00    +0.174 C 
BRANCH  15  16
ATOM     16  NE  ARG A   5      25.303  42.408  26.025  0.00  0.00    -0.265 N 
ATOM     17  HE  ARG A   5      26.077  43.094  26.132  0.00  0.00    +0.259 HD
ATOM     18  CZ  ARG A   5      24.704  42.349  24.838  0.00  0.00    +0.342 C 
ATOM     19  NH2 ARG A   5      23.658  41.547  24.620  0.00  0.00    -0.292 N 
ATOM     20 HH21 ARG A   5      23.293  40.949  25.388  0.00  0.00    +0.255 HD
ATOM     21 HH22 ARG A   5      23.209  41.521  23.682  0.00  0.00    +0.255 HD
ATOM     22  NH1 ARG A   5      25.135  43.144  23.866  0.00  0.00    -0.292 N 
ATOM     23 HH11 ARG A   5      25.926  43.796  24.040  0.00  0.00    +0.255 HD
ATOM     24 HH12 ARG A   5      24.682  43.115  22.931  0.00  0.00    +0.255 HD
ENDBRANCH  15  16
ENDBRANCH  14  15
ENDBRANCH  13  14
ENDBRANCH  10  13
ENDBRANCH   8  10
ENDBRANCH   5   6
BRANCH   5  25
ATOM     25  CB  ASP A   4      32.753  41.284  27.914  0.00  0.00    +0.143 C 
BRANCH  25  26
ATOM     26  CG  ASP A   4      34.098  41.585  27.282  0.00  0.00    +0.367 C 
ATOM     27  OD2 ASP A   4      34.838  42.415  27.855  0.00  0.00    -0.246 OA
ATOM     28  OD1 ASP A   4      34.432  40.992  26.232  0.00  0.00    -0.246 OA
ENDBRANCH  25  26
ENDBRANCH   5  25
ENDBRANCH   3   5
BRANCH   1  29
ATOM     29  CA  ASP A   3      30.655  44.540  25.786  0.00  0.00    +0.160 C 
BRANCH  29  31
ATOM     30  C   ALA A   2      31.850  44.210  23.659  0.00  0.00    +0.241 C 
ATOM     31  N   ASP A   3      30.718  44.175  24.365  0.00  0.00    -0.297 N 
ATOM     32  H   ASP A   3      29.843  43.876  23.888  0.00  0.00    +0.150 HD
ATOM     33  O   ALA A   2      32.940  44.595  24.118  0.00  0.00    -0.273 OA
BRANCH  30  34
ATOM     34  CA  ALA A   2      31.750  43.739  22.202  0.00  0.00    +0.149 C 
ATOM     35  CB  ALA A   2      31.517  44.903  21.294  0.00  0.00    +0.031 C 
BRANCH  34  38
ATOM     36  C   THR A   1      30.719  41.558  22.656  0.00  0.00    +0.241 C 
ATOM     37  O   THR A   1      31.579  41.251  23.490  0.00  0.00    -0.274 OA
ATOM     38  N   ALA A   2      30.714  42.719  22.009  0.00  0.00    -0.297 N 
ATOM     39  H   ALA A   2      29.943  42.912  21.338  0.00  0.00    +0.150 HD
BRANCH  36  40
ATOM     40  CA  THR A   1      29.578  40.584  22.332  0.00  0.00    +0.172 C 
BRANCH  40  41
ATOM     41  CB  THR A   1      28.283  41.159  22.866  0.00  0.00    +0.135 C 
ATOM     42  CG2 THR A   1      27.122  40.224  22.554  0.00  0.00    +0.034 C 
BRANCH  41  43
ATOM     43  OG1 THR A   1      28.408  41.325  24.284  0.00  0.00    -0.383 OA
ATOM     44  HG1 THR A   1      27.567  41.701  24.647  0.00  0.00    +0.210 HD
ENDBRANCH  41  43
ENDBRANCH  40  41
BRANCH  40  45
ATOM     45  N   THR A   1      29.812  39.250  22.893  0.00  0.00    -0.236 NA
ATOM     46  H   THR A   1      29.294  38.951  23.744  0.00  0.00    +0.142 HD
ENDBRANCH  40  45
ENDBRANCH  36  40
ENDBRANCH  34  38
ENDBRANCH  30  34
ENDBRANCH  29  31
BRANCH  29  47
ATOM     47  CB  ASP A   3      29.342  45.272  26.117  0.00  0.00    +0.143 C 
BRANCH  47  48
ATOM     48  CG  ASP A   3      28.107  44.440  25.806  0.00  0.00    +0.367 C 
ATOM     49  OD2 ASP A   3      27.256  44.256  26.709  0.00  0.00    -0.246 OA
ATOM     50  OD1 ASP A   3      27.974  43.982  24.648  0.00  0.00    -0.246 OA
ENDBRANCH  47  48
ENDBRANCH  29  47
ENDBRANCH   1  29
TORSDOF 20
REMARK  Name = ../refined-set-2016/2hnx/2hnx_pocket.pdb
REMARK  228 active torsions:
REMARK  status: ('A' for Active; 'I' for Inactive)
REMARK    1  A    between atoms: _1  and  _3
REMARK    2  A    between atoms: _3  and  _4
REMARK    3  A    between atoms: _3  and  _6
REMARK    4  A    between atoms: _6  and  _7
REMARK    5  A    between atoms: _10  and  _12
REMARK    6  A    between atoms: _12  and  _13
REMARK    7  A    between atoms: _12  and  _15
REMARK    8  A    between atoms: _15  and  _16
REMARK    9  A    between atoms: _18  and  _20
REMARK   10  A    between atoms: _20  and  _21
REMARK   11  A    between atoms: _20  and  _23
REMARK   12  A    between atoms: _23  and  _24
REMARK   13  A    between atoms: _26  and  _28
REMARK   14  A    between atoms: _28  and  _29
REMARK   15  A    between atoms: _28  and  _31
REMARK   16  A    between atoms: _31  and  _32
REMARK   17  A    between atoms: _38  and  _40
REMARK   18  A    between atoms: _40  and  _41
REMARK   19  A    between atoms: _40  and  _43
REMARK   20  A    between atoms: _43  and  _44
REMARK   21  A    between atoms: _49  and  _50
REMARK   22  A    between atoms: _52  and  _54
REMARK   23  A    between atoms: _54  and  _55
REMARK   24  A    between atoms: _54  and  _57
REMARK   25  A    between atoms: _57  and  _58
REMARK   26  A    between atoms: _58  and  _59
REMARK   27  A    between atoms: _61  and  _63
REMARK   28  A    between atoms: _63  and  _64
REMARK   29  A    between atoms: _63  and  _66
REMARK   30  A    between atoms: _66  and  _67
REMARK   31  A    between atoms: _67  and  _68
REMARK   32  A    between atoms: _68  and  _69
REMARK   33  A    between atoms: _69  and  _70
REMARK   34  A    between atoms: _74  and  _76
REMARK   35  A    between atoms: _76  and  _77
REMARK   36  A    between atoms: _76  and  _79
REMARK   37  A    between atoms: _82  and  _84
REMARK   38  A    between atoms: _84  and  _85
REMARK   39  A    between atoms: _84  and  _87
REMARK   40  A    between atoms: _90  and  _92
REMARK   41  A    between atoms: _92  and  _93
REMARK   42  A    between atoms: _95  and  _97
REMARK   43  A    between atoms: _97  and  _98
REMARK   44  A    between atoms: _97  and  _100
REMARK   45  A    between atoms: _100  and  _101
REMARK   46  A    between atoms: _104  and  _106
REMARK   47  A    between atoms: _106  and  _107
REMARK   48  A    between atoms: _106  and  _109
REMARK   49  A    between atoms: _109  and  _110
REMARK   50  A    between atoms: _110  and  _111
REMARK   51  A    between atoms: _111  and  _112
REMARK   52  A    between atoms: _121  and  _123
REMARK   53  A    between atoms: _123  and  _124
REMARK   54  A    between atoms: _123  and  _126
REMARK   55  A    between atoms: _129  and  _131
REMARK   56  A    between atoms: _131  and  _132
REMARK   57  A    between atoms: _135  and  _137
REMARK   58  A    between atoms: _137  and  _138
REMARK   59  A    between atoms: _140  and  _142
REMARK   60  A    between atoms: _142  and  _143
REMARK   61  A    between atoms: _142  and  _145
REMARK   62  A    between atoms: _145  and  _146
REMARK   63  A    between atoms: _146  and  _147
REMARK   64  A    between atoms: _149  and  _151
REMARK   65  A    between atoms: _151  and  _152
REMARK   66  A    between atoms: _155  and  _157
REMARK   67  A    between atoms: _157  and  _158
REMARK   68  A    between atoms: _157  and  _160
REMARK   69  A    between atoms: _160  and  _161
REMARK   70  A    between atoms: _161  and  _162
REMARK   71  A    between atoms: _162  and  _163
REMARK   72  A    between atoms: _163  and  _164
REMARK   73  A    between atoms: _169  and  _170
REMARK   74  A    between atoms: _175  and  _177
REMARK   75  A    between atoms: _177  and  _178
REMARK   76  A    between atoms: _177  and  _180
REMARK   77  A    between atoms: _180  and  _181
REMARK   78  A    between atoms: _186  and  _188
REMARK   79  A    between atoms: _188  and  _189
REMARK   80  A    between atoms: _188  and  _191
REMARK   81  A    between atoms: _191  and  _192
REMARK   82  A    between atoms: _192  and  _193
REMARK   83  A    between atoms: _195  and  _197
REMARK   84  A    between atoms: _197  and  _198
REMARK   85  A    between atoms: _197  and  _200
REMARK   86  A    between atoms: _200  and  _201
REMARK   87  A    between atoms: _204  and  _206
REMARK   88  A    between atoms: _206  and  _207
REMARK   89  A    between atoms: _206  and  _209
REMARK   90  A    between atoms: _209  and  _210
REMARK   91  A    between atoms: _210  and  _211
REMARK   92  A    between atoms: _211  and  _212
REMARK   93  A    between atoms: _212  and  _213
REMARK   94  A    between atoms: _217  and  _219
REMARK   95  A    between atoms: _219  and  _220
REMARK   96  A    between atoms: _219  and  _222
REMARK   97  A    between atoms: _222  and  _223
REMARK   98  A    between atoms: _225  and  _227
REMARK   99  A    between atoms: _227  and  _228
REMARK  100  A    between atoms: _227  and  _230
REMARK  101  A    between atoms: _230  and  _231
REMARK  102  A    between atoms: _231  and  _232
REMARK  103  A    between atoms: _235  and  _237
REMARK  104  A    between atoms: _237  and  _238
REMARK  105  A    between atoms: _237  and  _240
REMARK  106  A    between atoms: _240  and  _241
REMARK  107  A    between atoms: _243  and  _245
REMARK  108  A    between atoms: _245  and  _246
REMARK  109  A    between atoms: _245  and  _248
REMARK  110  A    between atoms: _248  and  _249
REMARK  111  A    between atoms: _252  and  _254
REMARK  112  A    between atoms: _254  and  _255
REMARK  113  A    between atoms: _254  and  _257
REMARK  114  A    between atoms: _257  and  _258
REMARK  115  A    between atoms: _264  and  _266
REMARK  116  A    between atoms: _266  and  _267
REMARK  117  A    between atoms: _266  and  _269
REMARK  118  A    between atoms: _269  and  _270
REMARK  119  A    between atoms: _270  and  _271
REMARK  120  A    between atoms: _271  and  _272
REMARK  121  A    between atoms: _272  and  _273
REMARK  122  A    between atoms: _277  and  _279
REMARK  123  A    between atoms: _279  and  _280
REMARK  124  A    between atoms: _279  and  _282
REMARK  125  A    between atoms: _282  and  _283
REMARK  126  A    between atoms: _288  and  _290
REMARK  127  A    between atoms: _290  and  _291
REMARK  128  A    between atoms: _290  and  _293
REMARK  129  A    between atoms: _293  and  _294
REMARK  130  A    between atoms: _297  and  _299
REMARK  131  A    between atoms: _299  and  _300
REMARK  132  A    between atoms: _299  and  _302
REMARK  133  A    between atoms: _302  and  _303
REMARK  134  A    between atoms: _303  and  _304
REMARK  135  A    between atoms: _307  and  _309
REMARK  136  A    between atoms: _309  and  _310
REMARK  137  A    between atoms: _309  and  _312
REMARK  138  A    between atoms: _312  and  _313
REMARK  139  A    between atoms: _316  and  _318
REMARK  140  A    between atoms: _318  and  _319
REMARK  141  A    between atoms: _322  and  _324
REMARK  142  A    between atoms: _324  and  _325
REMARK  143  A    between atoms: _324  and  _327
REMARK  144  A    between atoms: _327  and  _328
REMARK  145  A    between atoms: _331  and  _333
REMARK  146  A    between atoms: _333  and  _334
REMARK  147  A    between atoms: _333  and  _336
REMARK  148  A    between atoms: _336  and  _337
REMARK  149  A    between atoms: _340  and  _342
REMARK  150  A    between atoms: _342  and  _343
REMARK  151  A    between atoms: _342  and  _345
REMARK  152  A    between atoms: _345  and  _346
REMARK  153  A    between atoms: _346  and  _347
REMARK  154  A    between atoms: _347  and  _348
REMARK  155  A    between atoms: _357  and  _359
REMARK  156  A    between atoms: _359  and  _360
REMARK  157  A    between atoms: _359  and  _362
REMARK  158  A    between atoms: _362  and  _363
REMARK  159  A    between atoms: _368  and  _370
REMARK  160  A    between atoms: _370  and  _371
REMARK  161  A    between atoms: _370  and  _373
REMARK  162  A    between atoms: _373  and  _374
REMARK  163  A    between atoms: _374  and  _375
REMARK  164  A    between atoms: _380  and  _382
REMARK  165  A    between atoms: _382  and  _383
REMARK  166  A    between atoms: _382  and  _385
REMARK  167  A    between atoms: _385  and  _386
REMARK  168  A    between atoms: _389  and  _391
REMARK  169  A    between atoms: _391  and  _392
REMARK  170  A    between atoms: _391  and  _394
REMARK  171  A    between atoms: _394  and  _395
REMARK  172  A    between atoms: _398  and  _400
REMARK  173  A    between atoms: _400  and  _401
REMARK  174  A    between atoms: _400  and  _403
REMARK  175  A    between atoms: _403  and  _404
REMARK  176  A    between atoms: _407  and  _409
REMARK  177  A    between atoms: _409  and  _410
REMARK  178  A    between atoms: _409  and  _412
REMARK  179  A    between atoms: _412  and  _413
REMARK  180  A    between atoms: _413  and  _414
REMARK  181  A    between atoms: _414  and  _415
REMARK  182  A    between atoms: _415  and  _416
REMARK  183  A    between atoms: _420  and  _422
REMARK  184  A    between atoms: _422  and  _423
REMARK  185  A    between atoms: _422  and  _425
REMARK  186  A    between atoms: _425  and  _426
REMARK  187  A    between atoms: _426  and  _427
REMARK  188  A    between atoms: _427  and  _428
REMARK  189  A    between atoms: _437  and  _439
REMARK  190  A    between atoms: _439  and  _440
REMARK  191  A    between atoms: _439  and  _442
REMARK  192  A    between atoms: _442  and  _443
REMARK  193  A    between atoms: _446  and  _448
REMARK  194  A    between atoms: _448  and  _449
REMARK  195  A    between atoms: _448  and  _451
REMARK  196  A    between atoms: _454  and  _456
REMARK  197  A    between atoms: _456  and  _457
REMARK  198  A    between atoms: _456  and  _459
REMARK  199  A    between atoms: _459  and  _460
REMARK  200  A    between atoms: _460  and  _461
REMARK  201  A    between atoms: _464  and  _466
REMARK  202  A    between atoms: _466  and  _467
REMARK  203  A    between atoms: _466  and  _469
REMARK  204  A    between atoms: _471  and  _473
REMARK  205  A    between atoms: _473  and  _474
REMARK  206  A    between atoms: _473  and  _476
REMARK  207  A    between atoms: _479  and  _481
REMARK  208  A    between atoms: _481  and  _482
REMARK  209  A    between atoms: _481  and  _484
REMARK  210  A    between atoms: _484  and  _485
REMARK  211  A    between atoms: _487  and  _489
REMARK  212  A    between atoms: _489  and  _490
REMARK  213  A    between atoms: _489  and  _492
REMARK  214  A    between atoms: _492  and  _493
REMARK  215  A    between atoms: _496  and  _498
REMARK  216  A    between atoms: _498  and  _499
REMARK  217  A    between atoms: _498  and  _501
REMARK  218  A    between atoms: _501  and  _502
REMARK  219  A    between atoms: _502  and  _503
REMARK  220  A    between atoms: _503  and  _504
REMARK  221  A    between atoms: _513  and  _515
REMARK  222  A    between atoms: _515  and  _516
REMARK  223  A    between atoms: _515  and  _518
REMARK  224  A    between atoms: _521  and  _523
REMARK  225  A    between atoms: _523  and  _524
REMARK  226  A    between atoms: _523  and  _526
REMARK  227  A    between atoms: _526  and  _527
REMARK  228  A    between atoms: _532  and  _533
REMARK                            x       y       z     vdW  Elec       q    Type
REMARK                         _______ _______ _______ _____ _____    ______ ____
ROOT
ATOM      1  CB  HIS A   1      20.816  39.631  14.939  0.00  0.00    +0.072 C 
ENDROOT
BRANCH   1   2
ATOM      2  CG  HIS A   1      21.987  39.194  15.769  0.00  0.00    +0.082 A 
ATOM      3  CD2 HIS A   1      22.134  38.231  16.713  0.00  0.00    +0.115 A 
ATOM      4  NE2 HIS A   1      23.452  38.267  17.126  0.00  0.00    -0.221 NA
ATOM      5  CE1 HIS A   1      24.087  39.205  16.447  0.00  0.00    +0.199 A 
ATOM      6  ND1 HIS A   1      23.227  39.781  15.621  0.00  0.00    -0.227 NA
ENDBRANCH   1   2
BRANCH   1   7
ATOM      7  CA  HIS A   1      19.526  38.817  15.132  0.00  0.00    +0.139 C 
BRANCH   7   8
ATOM      8  N   HIS A   1      18.517  39.408  14.250  0.00  0.00    -0.239 NA
ATOM      9  H   HIS A   1      18.312  40.422  14.361  0.00  0.00    +0.142 HD
ENDBRANCH   7   8
BRANCH   7  10
ATOM     10  C   HIS A   1      19.009  38.896  16.562  0.00  0.00    +0.224 C 
ATOM     11  O   HIS A   1      18.841  39.987  17.093  0.00  0.00    -0.287 OA
ENDBRANCH   7  10
ENDBRANCH   1   7
TORSDOF 4
REMARK  Name = ../refined-set-2016/2hnx/2hnx_pocket.pdb
REMARK  228 active torsions:
REMARK  status: ('A' for Active; 'I' for Inactive)
REMARK    1  A    between atoms: _1  and  _3
REMARK    2  A    between atoms: _3  and  _4
REMARK    3  A    between atoms: _3  and  _6
REMARK    4  A    between atoms: _6  and  _7
REMARK    5  A    between atoms: _10  and  _12
REMARK    6  A    between atoms: _12  and  _13
REMARK    7  A    between atoms: _12  and  _15
REMARK    8  A    between atoms: _15  and  _16
REMARK    9  A    between atoms: _18  and  _20
REMARK   10  A    between atoms: _20  and  _21
REMARK   11  A    between atoms: _20  and  _23
REMARK   12  A    between atoms: _23  and  _24
REMARK   13  A    between atoms: _26  and  _28
REMARK   14  A    between atoms: _28  and  _29
REMARK   15  A    between atoms: _28  and  _31
REMARK   16  A    between atoms: _31  and  _32
REMARK   17  A    between atoms: _38  and  _40
REMARK   18  A    between atoms: _40  and  _41
REMARK   19  A    between atoms: _40  and  _43
REMARK   20  A    between atoms: _43  and  _44
REMARK   21  A    between atoms: _49  and  _50
REMARK   22  A    between atoms: _52  and  _54
REMARK   23  A    between atoms: _54  and  _55
REMARK   24  A    between atoms: _54  and  _57
REMARK   25  A    between atoms: _57  and  _58
REMARK   26  A    between atoms: _58  and  _59
REMARK   27  A    between atoms: _61  and  _63
REMARK   28  A    between atoms: _63  and  _64
REMARK   29  A    between atoms: _63  and  _66
REMARK   30  A    between atoms: _66  and  _67
REMARK   31  A    between atoms: _67  and  _68
REMARK   32  A    between atoms: _68  and  _69
REMARK   33  A    between atoms: _69  and  _70
REMARK   34  A    between atoms: _74  and  _76
REMARK   35  A    between atoms: _76  and  _77
REMARK   36  A    between atoms: _76  and  _79
REMARK   37  A    between atoms: _82  and  _84
REMARK   38  A    between atoms: _84  and  _85
REMARK   39  A    between atoms: _84  and  _87
REMARK   40  A    between atoms: _90  and  _92
REMARK   41  A    between atoms: _92  and  _93
REMARK   42  A    between atoms: _95  and  _97
REMARK   43  A    between atoms: _97  and  _98
REMARK   44  A    between atoms: _97  and  _100
REMARK   45  A    between atoms: _100  and  _101
REMARK   46  A    between atoms: _104  and  _106
REMARK   47  A    between atoms: _106  and  _107
REMARK   48  A    between atoms: _106  and  _109
REMARK   49  A    between atoms: _109  and  _110
REMARK   50  A    between atoms: _110  and  _111
REMARK   51  A    between atoms: _111  and  _112
REMARK   52  A    between atoms: _121  and  _123
REMARK   53  A    between atoms: _123  and  _124
REMARK   54  A    between atoms: _123  and  _126
REMARK   55  A    between atoms: _129  and  _131
REMARK   56  A    between atoms: _131  and  _132
REMARK   57  A    between atoms: _135  and  _137
REMARK   58  A    between atoms: _137  and  _138
REMARK   59  A    between atoms: _140  and  _142
REMARK   60  A    between atoms: _142  and  _143
REMARK   61  A    between atoms: _142  and  _145
REMARK   62  A    between atoms: _145  and  _146
REMARK   63  A    between atoms: _146  and  _147
REMARK   64  A    between atoms: _149  and  _151
REMARK   65  A    between atoms: _151  and  _152
REMARK   66  A    between atoms: _155  and  _157
REMARK   67  A    between atoms: _157  and  _158
REMARK   68  A    between atoms: _157  and  _160
REMARK   69  A    between atoms: _160  and  _161
REMARK   70  A    between atoms: _161  and  _162
REMARK   71  A    between atoms: _162  and  _163
REMARK   72  A    between atoms: _163  and  _164
REMARK   73  A    between atoms: _169  and  _170
REMARK   74  A    between atoms: _175  and  _177
REMARK   75  A    between atoms: _177  and  _178
REMARK   76  A    between atoms: _177  and  _180
REMARK   77  A    between atoms: _180  and  _181
REMARK   78  A    between atoms: _186  and  _188
REMARK   79  A    between atoms: _188  and  _189
REMARK   80  A    between atoms: _188  and  _191
REMARK   81  A    between atoms: _191  and  _192
REMARK   82  A    between atoms: _192  and  _193
REMARK   83  A    between atoms: _195  and  _197
REMARK   84  A    between atoms: _197  and  _198
REMARK   85  A    between atoms: _197  and  _200
REMARK   86  A    between atoms: _200  and  _201
REMARK   87  A    between atoms: _204  and  _206
REMARK   88  A    between atoms: _206  and  _207
REMARK   89  A    between atoms: _206  and  _209
REMARK   90  A    between atoms: _209  and  _210
REMARK   91  A    between atoms: _210  and  _211
REMARK   92  A    between atoms: _211  and  _212
REMARK   93  A    between atoms: _212  and  _213
REMARK   94  A    between atoms: _217  and  _219
REMARK   95  A    between atoms: _219  and  _220
REMARK   96  A    between atoms: _219  and  _222
REMARK   97  A    between atoms: _222  and  _223
REMARK   98  A    between atoms: _225  and  _227
REMARK   99  A    between atoms: _227  and  _228
REMARK  100  A    between atoms: _227  and  _230
REMARK  101  A    between atoms: _230  and  _231
REMARK  102  A    between atoms: _231  and  _232
REMARK  103  A    between atoms: _235  and  _237
REMARK  104  A    between atoms: _237  and  _238
REMARK  105  A    between atoms: _237  and  _240
REMARK  106  A    between atoms: _240  and  _241
REMARK  107  A    between atoms: _243  and  _245
REMARK  108  A    between atoms: _245  and  _246
REMARK  109  A    between atoms: _245  and  _248
REMARK  110  A    between atoms: _248  and  _249
REMARK  111  A    between atoms: _252  and  _254
REMARK  112  A    between atoms: _254  and  _255
REMARK  113  A    between atoms: _254  and  _257
REMARK  114  A    between atoms: _257  and  _258
REMARK  115  A    between atoms: _264  and  _266
REMARK  116  A    between atoms: _266  and  _267
REMARK  117  A    between atoms: _266  and  _269
REMARK  118  A    between atoms: _269  and  _270
REMARK  119  A    between atoms: _270  and  _271
REMARK  120  A    between atoms: _271  and  _272
REMARK  121  A    between atoms: _272  and  _273
REMARK  122  A    between atoms: _277  and  _279
REMARK  123  A    between atoms: _279  and  _280
REMARK  124  A    between atoms: _279  and  _282
REMARK  125  A    between atoms: _282  and  _283
REMARK  126  A    between atoms: _288  and  _290
REMARK  127  A    between atoms: _290  and  _291
REMARK  128  A    between atoms: _290  and  _293
REMARK  129  A    between atoms: _293  and  _294
REMARK  130  A    between atoms: _297  and  _299
REMARK  131  A    between atoms: _299  and  _300
REMARK  132  A    between atoms: _299  and  _302
REMARK  133  A    between atoms: _302  and  _303
REMARK  134  A    between atoms: _303  and  _304
REMARK  135  A    between atoms: _307  and  _309
REMARK  136  A    between atoms: _309  and  _310
REMARK  137  A    between atoms: _309  and  _312
REMARK  138  A    between atoms: _312  and  _313
REMARK  139  A    between atoms: _316  and  _318
REMARK  140  A    between atoms: _318  and  _319
REMARK  141  A    between atoms: _322  and  _324
REMARK  142  A    between atoms: _324  and  _325
REMARK  143  A    between atoms: _324  and  _327
REMARK  144  A    between atoms: _327  and  _328
REMARK  145  A    between atoms: _331  and  _333
REMARK  146  A    between atoms: _333  and  _334
REMARK  147  A    between atoms: _333  and  _336
REMARK  148  A    between atoms: _336  and  _337
REMARK  149  A    between atoms: _340  and  _342
REMARK  150  A    between atoms: _342  and  _343
REMARK  151  A    between atoms: _342  and  _345
REMARK  152  A    between atoms: _345  and  _346
REMARK  153  A    between atoms: _346  and  _347
REMARK  154  A    between atoms: _347  and  _348
REMARK  155  A    between atoms: _357  and  _359
REMARK  156  A    between atoms: _359  and  _360
REMARK  157  A    between atoms: _359  and  _362
REMARK  158  A    between atoms: _362  and  _363
REMARK  159  A    between atoms: _368  and  _370
REMARK  160  A    between atoms: _370  and  _371
REMARK  161  A    between atoms: _370  and  _373
REMARK  162  A    between atoms: _373  and  _374
REMARK  163  A    between atoms: _374  and  _375
REMARK  164  A    between atoms: _380  and  _382
REMARK  165  A    between atoms: _382  and  _383
REMARK  166  A    between atoms: _382  and  _385
REMARK  167  A    between atoms: _385  and  _386
REMARK  168  A    between atoms: _389  and  _391
REMARK  169  A    between atoms: _391  and  _392
REMARK  170  A    between atoms: _391  and  _394
REMARK  171  A    between atoms: _394  and  _395
REMARK  172  A    between atoms: _398  and  _400
REMARK  173  A    between atoms: _400  and  _401
REMARK  174  A    between atoms: _400  and  _403
REMARK  175  A    between atoms: _403  and  _404
REMARK  176  A    between atoms: _407  and  _409
REMARK  177  A    between atoms: _409  and  _410
REMARK  178  A    between atoms: _409  and  _412
REMARK  179  A    between atoms: _412  and  _413
REMARK  180  A    between atoms: _413  and  _414
REMARK  181  A    between atoms: _414  and  _415
REMARK  182  A    between atoms: _415  and  _416
REMARK  183  A    between atoms: _420  and  _422
REMARK  184  A    between atoms: _422  and  _423
REMARK  185  A    between atoms: _422  and  _425
REMARK  186  A    between atoms: _425  and  _426
REMARK  187  A    between atoms: _426  and  _427
REMARK  188  A    between atoms: _427  and  _428
REMARK  189  A    between atoms: _437  and  _439
REMARK  190  A    between atoms: _439  and  _440
REMARK  191  A    between atoms: _439  and  _442
REMARK  192  A    between atoms: _442  and  _443
REMARK  193  A    between atoms: _446  and  _448
REMARK  194  A    between atoms: _448  and  _449
REMARK  195  A    between atoms: _448  and  _451
REMARK  196  A    between atoms: _454  and  _456
REMARK  197  A    between atoms: _456  and  _457
REMARK  198  A    between atoms: _456  and  _459
REMARK  199  A    between atoms: _459  and  _460
REMARK  200  A    between atoms: _460  and  _461
REMARK  201  A    between atoms: _464  and  _466
REMARK  202  A    between atoms: _466  and  _467
REMARK  203  A    between atoms: _466  and  _469
REMARK  204  A    between atoms: _471  and  _473
REMARK  205  A    between atoms: _473  and  _474
REMARK  206  A    between atoms: _473  and  _476
REMARK  207  A    between atoms: _479  and  _481
REMARK  208  A    between atoms: _481  and  _482
REMARK  209  A    between atoms: _481  and  _484
REMARK  210  A    between atoms: _484  and  _485
REMARK  211  A    between atoms: _487  and  _489
REMARK  212  A    between atoms: _489  and  _490
REMARK  213  A    between atoms: _489  and  _492
REMARK  214  A    between atoms: _492  and  _493
REMARK  215  A    between atoms: _496  and  _498
REMARK  216  A    between atoms: _498  and  _499
REMARK  217  A    between atoms: _498  and  _501
REMARK  218  A    between atoms: _501  and  _502
REMARK  219  A    between atoms: _502  and  _503
REMARK  220  A    between atoms: _503  and  _504
REMARK  221  A    between atoms: _513  and  _515
REMARK  222  A    between atoms: _515  and  _516
REMARK  223  A    between atoms: _515  and  _518
REMARK  224  A    between atoms: _521  and  _523
REMARK  225  A    between atoms: _523  and  _524
REMARK  226  A    between atoms: _523  and  _526
REMARK  227  A    between atoms: _526  and  _527
REMARK  228  A    between atoms: _532  and  _533
REMARK                            x       y       z     vdW  Elec       q    Type
REMARK                         _______ _______ _______ _____ _____    ______ ____
ROOT
ATOM      1  CB  GLN A   1      21.690  38.602  21.690  0.00  0.00    +0.035 C 
ENDROOT
BRANCH   1   2
ATOM      2  CA  GLN A   1      20.665  37.496  21.488  0.00  0.00    +0.134 C 
BRANCH   2   3
ATOM      3  N   GLN A   1      19.659  37.886  20.489  0.00  0.00    -0.239 NA
ATOM      4  H   GLN A   1      19.141  38.775  20.640  0.00  0.00    +0.142 HD
ENDBRANCH   2   3
BRANCH   2   5
ATOM      5  C   GLN A   1      19.961  37.202  22.812  0.00  0.00    +0.224 C 
ATOM      6  O   GLN A   1      19.135  38.003  23.262  0.00  0.00    -0.287 OA
ENDBRANCH   2   5
ENDBRANCH   1   2
BRANCH   1   7
ATOM      7  CG  GLN A   1      22.489  38.931  20.452  0.00  0.00    +0.087 C 
BRANCH   7   8
ATOM      8  CD  GLN A   1      23.465  40.065  20.675  0.00  0.00    +0.219 C 
ATOM      9  NE2 GLN A   1      23.114  40.968  21.593  0.00  0.00    -0.329 N 
ATOM     10 HE21 GLN A   1      22.225  40.855  22.120  0.00  0.00    +0.145 HD
ATOM     11 HE22 GLN A   1      23.730  41.785  21.781  0.00  0.00    +0.145 HD
ATOM     12  OE1 GLN A   1      24.518  40.151  20.015  0.00  0.00    -0.275 OA
ENDBRANCH   7   8
ENDBRANCH   1   7
TORSDOF 5
REMARK  Name = ../refined-set-2016/2hnx/2hnx_pocket.pdb
REMARK  228 active torsions:
REMARK  status: ('A' for Active; 'I' for Inactive)
REMARK    1  A    between atoms: _1  and  _3
REMARK    2  A    between atoms: _3  and  _4
REMARK    3  A    between atoms: _3  and  _6
REMARK    4  A    between atoms: _6  and  _7
REMARK    5  A    between atoms: _10  and  _12
REMARK    6  A    between atoms: _12  and  _13
REMARK    7  A    between atoms: _12  and  _15
REMARK    8  A    between atoms: _15  and  _16
REMARK    9  A    between atoms: _18  and  _20
REMARK   10  A    between atoms: _20  and  _21
REMARK   11  A    between atoms: _20  and  _23
REMARK   12  A    between atoms: _23  and  _24
REMARK   13  A    between atoms: _26  and  _28
REMARK   14  A    between atoms: _28  and  _29
REMARK   15  A    between atoms: _28  and  _31
REMARK   16  A    between atoms: _31  and  _32
REMARK   17  A    between atoms: _38  and  _40
REMARK   18  A    between atoms: _40  and  _41
REMARK   19  A    between atoms: _40  and  _43
REMARK   20  A    between atoms: _43  and  _44
REMARK   21  A    between atoms: _49  and  _50
REMARK   22  A    between atoms: _52  and  _54
REMARK   23  A    between atoms: _54  and  _55
REMARK   24  A    between atoms: _54  and  _57
REMARK   25  A    between atoms: _57  and  _58
REMARK   26  A    between atoms: _58  and  _59
REMARK   27  A    between atoms: _61  and  _63
REMARK   28  A    between atoms: _63  and  _64
REMARK   29  A    between atoms: _63  and  _66
REMARK   30  A    between atoms: _66  and  _67
REMARK   31  A    between atoms: _67  and  _68
REMARK   32  A    between atoms: _68  and  _69
REMARK   33  A    between atoms: _69  and  _70
REMARK   34  A    between atoms: _74  and  _76
REMARK   35  A    between atoms: _76  and  _77
REMARK   36  A    between atoms: _76  and  _79
REMARK   37  A    between atoms: _82  and  _84
REMARK   38  A    between atoms: _84  and  _85
REMARK   39  A    between atoms: _84  and  _87
REMARK   40  A    between atoms: _90  and  _92
REMARK   41  A    between atoms: _92  and  _93
REMARK   42  A    between atoms: _95  and  _97
REMARK   43  A    between atoms: _97  and  _98
REMARK   44  A    between atoms: _97  and  _100
REMARK   45  A    between atoms: _100  and  _101
REMARK   46  A    between atoms: _104  and  _106
REMARK   47  A    between atoms: _106  and  _107
REMARK   48  A    between atoms: _106  and  _109
REMARK   49  A    between atoms: _109  and  _110
REMARK   50  A    between atoms: _110  and  _111
REMARK   51  A    between atoms: _111  and  _112
REMARK   52  A    between atoms: _121  and  _123
REMARK   53  A    between atoms: _123  and  _124
REMARK   54  A    between atoms: _123  and  _126
REMARK   55  A    between atoms: _129  and  _131
REMARK   56  A    between atoms: _131  and  _132
REMARK   57  A    between atoms: _135  and  _137
REMARK   58  A    between atoms: _137  and  _138
REMARK   59  A    between atoms: _140  and  _142
REMARK   60  A    between atoms: _142  and  _143
REMARK   61  A    between atoms: _142  and  _145
REMARK   62  A    between atoms: _145  and  _146
REMARK   63  A    between atoms: _146  and  _147
REMARK   64  A    between atoms: _149  and  _151
REMARK   65  A    between atoms: _151  and  _152
REMARK   66  A    between atoms: _155  and  _157
REMARK   67  A    between atoms: _157  and  _158
REMARK   68  A    between atoms: _157  and  _160
REMARK   69  A    between atoms: _160  and  _161
REMARK   70  A    between atoms: _161  and  _162
REMARK   71  A    between atoms: _162  and  _163
REMARK   72  A    between atoms: _163  and  _164
REMARK   73  A    between atoms: _169  and  _170
REMARK   74  A    between atoms: _175  and  _177
REMARK   75  A    between atoms: _177  and  _178
REMARK   76  A    between atoms: _177  and  _180
REMARK   77  A    between atoms: _180  and  _181
REMARK   78  A    between atoms: _186  and  _188
REMARK   79  A    between atoms: _188  and  _189
REMARK   80  A    between atoms: _188  and  _191
REMARK   81  A    between atoms: _191  and  _192
REMARK   82  A    between atoms: _192  and  _193
REMARK   83  A    between atoms: _195  and  _197
REMARK   84  A    between atoms: _197  and  _198
REMARK   85  A    between atoms: _197  and  _200
REMARK   86  A    between atoms: _200  and  _201
REMARK   87  A    between atoms: _204  and  _206
REMARK   88  A    between atoms: _206  and  _207
REMARK   89  A    between atoms: _206  and  _209
REMARK   90  A    between atoms: _209  and  _210
REMARK   91  A    between atoms: _210  and  _211
REMARK   92  A    between atoms: _211  and  _212
REMARK   93  A    between atoms: _212  and  _213
REMARK   94  A    between atoms: _217  and  _219
REMARK   95  A    between atoms: _219  and  _220
REMARK   96  A    between atoms: _219  and  _222
REMARK   97  A    between atoms: _222  and  _223
REMARK   98  A    between atoms: _225  and  _227
REMARK   99  A    between atoms: _227  and  _228
REMARK  100  A    between atoms: _227  and  _230
REMARK  101  A    between atoms: _230  and  _231
REMARK  102  A    between atoms: _231  and  _232
REMARK  103  A    between atoms: _235  and  _237
REMARK  104  A    between atoms: _237  and  _238
REMARK  105  A    between atoms: _237  and  _240
REMARK  106  A    between atoms: _240  and  _241
REMARK  107  A    between atoms: _243  and  _245
REMARK  108  A    between atoms: _245  and  _246
REMARK  109  A    between atoms: _245  and  _248
REMARK  110  A    between atoms: _248  and  _249
REMARK  111  A    between atoms: _252  and  _254
REMARK  112  A    between atoms: _254  and  _255
REMARK  113  A    between atoms: _254  and  _257
REMARK  114  A    between atoms: _257  and  _258
REMARK  115  A    between atoms: _264  and  _266
REMARK  116  A    between atoms: _266  and  _267
REMARK  117  A    between atoms: _266  and  _269
REMARK  118  A    between atoms: _269  and  _270
REMARK  119  A    between atoms: _270  and  _271
REMARK  120  A    between atoms: _271  and  _272
REMARK  121  A    between atoms: _272  and  _273
REMARK  122  A    between atoms: _277  and  _279
REMARK  123  A    between atoms: _279  and  _280
REMARK  124  A    between atoms: _279  and  _282
REMARK  125  A    between atoms: _282  and  _283
REMARK  126  A    between atoms: _288  and  _290
REMARK  127  A    between atoms: _290  and  _291
REMARK  128  A    between atoms: _290  and  _293
REMARK  129  A    between atoms: _293  and  _294
REMARK  130  A    between atoms: _297  and  _299
REMARK  131  A    between atoms: _299  and  _300
REMARK  132  A    between atoms: _299  and  _302
REMARK  133  A    between atoms: _302  and  _303
REMARK  134  A    between atoms: _303  and  _304
REMARK  135  A    between atoms: _307  and  _309
REMARK  136  A    between atoms: _309  and  _310
REMARK  137  A    between atoms: _309  and  _312
REMARK  138  A    between atoms: _312  and  _313
REMARK  139  A    between atoms: _316  and  _318
REMARK  140  A    between atoms: _318  and  _319
REMARK  141  A    between atoms: _322  and  _324
REMARK  142  A    between atoms: _324  and  _325
REMARK  143  A    between atoms: _324  and  _327
REMARK  144  A    between atoms: _327  and  _328
REMARK  145  A    between atoms: _331  and  _333
REMARK  146  A    between atoms: _333  and  _334
REMARK  147  A    between atoms: _333  and  _336
REMARK  148  A    between atoms: _336  and  _337
REMARK  149  A    between atoms: _340  and  _342
REMARK  150  A    between atoms: _342  and  _343
REMARK  151  A    between atoms: _342  and  _345
REMARK  152  A    between atoms: _345  and  _346
REMARK  153  A    between atoms: _346  and  _347
REMARK  154  A    between atoms: _347  and  _348
REMARK  155  A    between atoms: _357  and  _359
REMARK  156  A    between atoms: _359  and  _360
REMARK  157  A    between atoms: _359  and  _362
REMARK  158  A    between atoms: _362  and  _363
REMARK  159  A    between atoms: _368  and  _370
REMARK  160  A    between atoms: _370  and  _371
REMARK  161  A    between atoms: _370  and  _373
REMARK  162  A    between atoms: _373  and  _374
REMARK  163  A    between atoms: _374  and  _375
REMARK  164  A    between atoms: _380  and  _382
REMARK  165  A    between atoms: _382  and  _383
REMARK  166  A    between atoms: _382  and  _385
REMARK  167  A    between atoms: _385  and  _386
REMARK  168  A    between atoms: _389  and  _391
REMARK  169  A    between atoms: _391  and  _392
REMARK  170  A    between atoms: _391  and  _394
REMARK  171  A    between atoms: _394  and  _395
REMARK  172  A    between atoms: _398  and  _400
REMARK  173  A    between atoms: _400  and  _401
REMARK  174  A    between atoms: _400  and  _403
REMARK  175  A    between atoms: _403  and  _404
REMARK  176  A    between atoms: _407  and  _409
REMARK  177  A    between atoms: _409  and  _410
REMARK  178  A    between atoms: _409  and  _412
REMARK  179  A    between atoms: _412  and  _413
REMARK  180  A    between atoms: _413  and  _414
REMARK  181  A    between atoms: _414  and  _415
REMARK  182  A    between atoms: _415  and  _416
REMARK  183  A    between atoms: _420  and  _422
REMARK  184  A    between atoms: _422  and  _423
REMARK  185  A    between atoms: _422  and  _425
REMARK  186  A    between atoms: _425  and  _426
REMARK  187  A    between atoms: _426  and  _427
REMARK  188  A    between atoms: _427  and  _428
REMARK  189  A    between atoms: _437  and  _439
REMARK  190  A    between atoms: _439  and  _440
REMARK  191  A    between atoms: _439  and  _442
REMARK  192  A    between atoms: _442  and  _443
REMARK  193  A    between atoms: _446  and  _448
REMARK  194  A    between atoms: _448  and  _449
REMARK  195  A    between atoms: _448  and  _451
REMARK  196  A    between atoms: _454  and  _456
REMARK  197  A    between atoms: _456  and  _457
REMARK  198  A    between atoms: _456  and  _459
REMARK  199  A    between atoms: _459  and  _460
REMARK  200  A    between atoms: _460  and  _461
REMARK  201  A    between atoms: _464  and  _466
REMARK  202  A    between atoms: _466  and  _467
REMARK  203  A    between atoms: _466  and  _469
REMARK  204  A    between atoms: _471  and  _473
REMARK  205  A    between atoms: _473  and  _474
REMARK  206  A    between atoms: _473  and  _476
REMARK  207  A    between atoms: _479  and  _481
REMARK  208  A    between atoms: _481  and  _482
REMARK  209  A    between atoms: _481  and  _484
REMARK  210  A    between atoms: _484  and  _485
REMARK  211  A    between atoms: _487  and  _489
REMARK  212  A    between atoms: _489  and  _490
REMARK  213  A    between atoms: _489  and  _492
REMARK  214  A    between atoms: _492  and  _493
REMARK  215  A    between atoms: _496  and  _498
REMARK  216  A    between atoms: _498  and  _499
REMARK  217  A    between atoms: _498  and  _501
REMARK  218  A    between atoms: _501  and  _502
REMARK  219  A    between atoms: _502  and  _503
REMARK  220  A    between atoms: _503  and  _504
REMARK  221  A    between atoms: _513  and  _515
REMARK  222  A    between atoms: _515  and  _516
REMARK  223  A    between atoms: _515  and  _518
REMARK  224  A    between atoms: _521  and  _523
REMARK  225  A    between atoms: _523  and  _524
REMARK  226  A    between atoms: _523  and  _526
REMARK  227  A    between atoms: _526  and  _527
REMARK  228  A    between atoms: _532  and  _533
REMARK                            x       y       z     vdW  Elec       q    Type
REMARK                         _______ _______ _______ _____ _____    ______ ____
ROOT
ATOM      1  C   ILE A   3      18.762  43.369  14.832  0.00  0.00    +0.241 C 
ATOM      2  O   ILE A   3      18.899  42.233  14.363  0.00  0.00    -0.273 OA
ATOM      3  N   LYS A   4      18.171  44.364  14.170  0.00  0.00    -0.297 N 
ATOM      4  H   LYS A   4      18.045  45.286  14.634  0.00  0.00    +0.150 HD
ENDROOT
BRANCH   3   5
ATOM      5  CA  LYS A   4      17.697  44.174  12.796  0.00  0.00    +0.149 C 
BRANCH   5   6
ATOM      6  C   LYS A   4      18.596  44.953  11.858  0.00  0.00    +0.241 C 
ATOM      7  O   LYS A   4      18.976  46.093  12.160  0.00  0.00    -0.273 OA
ATOM      8  N   ARG A   5      18.968  44.332  10.737  0.00  0.00    -0.298 N 
ATOM      9  H   ARG A   5      18.630  43.366  10.553  0.00  0.00    +0.150 HD
BRANCH   8  10
ATOM     10  CA  ARG A   5      19.840  44.982   9.764  0.00  0.00    +0.137 C 
BRANCH  10  11
ATOM     11  C   ARG A   5      19.103  44.948   8.432  0.00  0.00    +0.227 C 
ATOM     12  O   ARG A   5      18.616  43.906   8.009  0.00  0.00    -0.286 OA
ENDBRANCH  10  11
BRANCH  10  13
ATOM     13  CB  ARG A   5      21.206  44.267   9.678  0.00  0.00    +0.031 C 
BRANCH  13  14
ATOM     14  CG  ARG A   5      22.085  44.431  10.937  0.00  0.00    +0.045 C 
BRANCH  14  15
ATOM     15  CD  ARG A   5      23.290  43.473  10.926  0.00  0.00    +0.174 C 
BRANCH  15  16
ATOM     16  NE  ARG A   5      24.146  43.562  12.128  0.00  0.00    -0.265 N 
ATOM     17  CZ  ARG A   5      24.108  42.733  13.171  0.00  0.00    +0.342 C 
ATOM     18  NH2 ARG A   5      24.959  42.923  14.178  0.00  0.00    -0.292 N 
ATOM     19 HH21 ARG A   5      24.943  42.286  15.000  0.00  0.00    +0.255 HD
ATOM     20 HH22 ARG A   5      25.639  43.709  14.143  0.00  0.00    +0.255 HD
ATOM     21  NH1 ARG A   5      23.258  41.713  13.227  0.00  0.00    -0.292 N 
ATOM     22 HH11 ARG A   5      23.254  41.084  14.056  0.00  0.00    +0.255 HD
ATOM     23 HH12 ARG A   5      22.597  41.543  12.442  0.00  0.00    +0.255 HD
ATOM     24  HE  ARG A   5      24.837  44.338  12.163  0.00  0.00    +0.259 HD
ENDBRANCH  15  16
ENDBRANCH  14  15
ENDBRANCH  13  14
ENDBRANCH  10  13
ENDBRANCH   8  10
ENDBRANCH   5   6
BRANCH   5  25
ATOM     25  CB  LYS A   4      16.235  44.617  12.631  0.00  0.00    +0.029 C 
BRANCH  25  26
ATOM     26  CG  LYS A   4      15.253  43.741  13.399  0.00  0.00    +0.000 C 
BRANCH  26  27
ATOM     27  CD  LYS A   4      13.808  44.173  13.178  0.00  0.00    -0.024 C 
BRANCH  27  28
ATOM     28  CE  LYS A   4      12.859  43.195  13.836  0.00  0.00    -0.086 C 
BRANCH  28  29
ATOM     29  NZ  LYS A   4      11.413  43.514  13.563  0.00  0.00    +0.380 N 
ATOM     30  HZ1 LYS A   4      10.809  42.813  14.037  0.00  0.00    -0.089 HD
ATOM     31  HZ2 LYS A   4      11.194  44.464  13.926  0.00  0.00    -0.089 HD
ATOM     32  HZ3 LYS A   4      11.240  43.485  12.538  0.00  0.00    -0.089 HD
ENDBRANCH  28  29
ENDBRANCH  27  28
ENDBRANCH  26  27
ENDBRANCH  25  26
ENDBRANCH   5  25
ENDBRANCH   3   5
BRANCH   1  33
ATOM     33  CA  ILE A   3      19.224  43.674  16.250  0.00  0.00    +0.149 C 
BRANCH  33  36
ATOM     34  C   THR A   2      17.725  43.131  18.086  0.00  0.00    +0.243 C 
ATOM     35  O   THR A   2      17.523  44.319  18.376  0.00  0.00    -0.273 OA
ATOM     36  N   ILE A   3      18.550  42.737  17.124  0.00  0.00    -0.297 N 
ATOM     37  H   ILE A   3      18.718  41.719  16.993  0.00  0.00    +0.150 HD
BRANCH  34  38
ATOM     38  CA  THR A   2      17.037  42.013  18.839  0.00  0.00    +0.176 C 
BRANCH  38  41
ATOM     39  C   THR A   1      17.657  41.397  21.108  0.00  0.00    +0.241 C 
ATOM     40  O   THR A   1      18.109  40.306  20.757  0.00  0.00    -0.274 OA
ATOM     41  N   THR A   2      17.143  42.275  20.260  0.00  0.00    -0.295 N 
ATOM     42  H   THR A   2      16.803  43.186  20.628  0.00  0.00    +0.150 HD
BRANCH  39  43
ATOM     43  CA  THR A   1      17.625  41.792  22.577  0.00  0.00    +0.172 C 
BRANCH  43  44
ATOM     44  N   THR A   1      17.593  40.578  23.396  0.00  0.00    -0.236 NA
ATOM     45  H   THR A   1      18.171  39.763  23.109  0.00  0.00    +0.142 HD
ENDBRANCH  43  44
BRANCH  43  46
ATOM     46  CB  THR A   1      18.838  42.708  22.931  0.00  0.00    +0.135 C 
ATOM     47  CG2 THR A   1      20.198  42.061  22.574  0.00  0.00    +0.034 C 
BRANCH  46  48
ATOM     48  OG1 THR A   1      18.711  43.971  22.255  0.00  0.00    -0.383 OA
ATOM     49  HG1 THR A   1      17.873  44.414  22.540  0.00  0.00    +0.210 HD
ENDBRANCH  46  48
ENDBRANCH  43  46
ENDBRANCH  39  43
ENDBRANCH  38  41
BRANCH  38  50
ATOM     50  CB  THR A   2      15.551  41.823  18.408  0.00  0.00    +0.137 C 
ATOM     51  CG2 THR A   2      15.406  41.561  16.906  0.00  0.00    +0.034 C 
BRANCH  50  52
ATOM     52  OG1 THR A   2      15.000  40.705  19.127  0.00  0.00    -0.382 OA
ATOM     53  HG1 THR A   2      15.048  40.884  20.100  0.00  0.00    +0.210 HD
ENDBRANCH  50  52
ENDBRANCH  38  50
ENDBRANCH  34  38
ENDBRANCH  33  36
BRANCH  33  54
ATOM     54  CB  ILE A   3      20.775  43.508  16.328  0.00  0.00    +0.027 C 
ATOM     55  CG2 ILE A   3      21.428  44.435  15.341  0.00  0.00    +0.002 C 
BRANCH  54  56
ATOM     56  CG1 ILE A   3      21.303  43.792  17.743  0.00  0.00    +0.002 C 
ATOM     57  CD1 ILE A   3      22.698  43.224  18.006  0.00  0.00    +0.000 C 
ENDBRANCH  54  56
ENDBRANCH  33  54
ENDBRANCH   1  33
TORSDOF 25
REMARK  Name = ../refined-set-2016/2hnx/2hnx_pocket.pdb
REMARK  228 active torsions:
REMARK  status: ('A' for Active; 'I' for Inactive)
REMARK    1  A    between atoms: _1  and  _3
REMARK    2  A    between atoms: _3  and  _4
REMARK    3  A    between atoms: _3  and  _6
REMARK    4  A    between atoms: _6  and  _7
REMARK    5  A    between atoms: _10  and  _12
REMARK    6  A    between atoms: _12  and  _13
REMARK    7  A    between atoms: _12  and  _15
REMARK    8  A    between atoms: _15  and  _16
REMARK    9  A    between atoms: _18  and  _20
REMARK   10  A    between atoms: _20  and  _21
REMARK   11  A    between atoms: _20  and  _23
REMARK   12  A    between atoms: _23  and  _24
REMARK   13  A    between atoms: _26  and  _28
REMARK   14  A    between atoms: _28  and  _29
REMARK   15  A    between atoms: _28  and  _31
REMARK   16  A    between atoms: _31  and  _32
REMARK   17  A    between atoms: _38  and  _40
REMARK   18  A    between atoms: _40  and  _41
REMARK   19  A    between atoms: _40  and  _43
REMARK   20  A    between atoms: _43  and  _44
REMARK   21  A    between atoms: _49  and  _50
REMARK   22  A    between atoms: _52  and  _54
REMARK   23  A    between atoms: _54  and  _55
REMARK   24  A    between atoms: _54  and  _57
REMARK   25  A    between atoms: _57  and  _58
REMARK   26  A    between atoms: _58  and  _59
REMARK   27  A    between atoms: _61  and  _63
REMARK   28  A    between atoms: _63  and  _64
REMARK   29  A    between atoms: _63  and  _66
REMARK   30  A    between atoms: _66  and  _67
REMARK   31  A    between atoms: _67  and  _68
REMARK   32  A    between atoms: _68  and  _69
REMARK   33  A    between atoms: _69  and  _70
REMARK   34  A    between atoms: _74  and  _76
REMARK   35  A    between atoms: _76  and  _77
REMARK   36  A    between atoms: _76  and  _79
REMARK   37  A    between atoms: _82  and  _84
REMARK   38  A    between atoms: _84  and  _85
REMARK   39  A    between atoms: _84  and  _87
REMARK   40  A    between atoms: _90  and  _92
REMARK   41  A    between atoms: _92  and  _93
REMARK   42  A    between atoms: _95  and  _97
REMARK   43  A    between atoms: _97  and  _98
REMARK   44  A    between atoms: _97  and  _100
REMARK   45  A    between atoms: _100  and  _101
REMARK   46  A    between atoms: _104  and  _106
REMARK   47  A    between atoms: _106  and  _107
REMARK   48  A    between atoms: _106  and  _109
REMARK   49  A    between atoms: _109  and  _110
REMARK   50  A    between atoms: _110  and  _111
REMARK   51  A    between atoms: _111  and  _112
REMARK   52  A    between atoms: _121  and  _123
REMARK   53  A    between atoms: _123  and  _124
REMARK   54  A    between atoms: _123  and  _126
REMARK   55  A    between atoms: _129  and  _131
REMARK   56  A    between atoms: _131  and  _132
REMARK   57  A    between atoms: _135  and  _137
REMARK   58  A    between atoms: _137  and  _138
REMARK   59  A    between atoms: _140  and  _142
REMARK   60  A    between atoms: _142  and  _143
REMARK   61  A    between atoms: _142  and  _145
REMARK   62  A    between atoms: _145  and  _146
REMARK   63  A    between atoms: _146  and  _147
REMARK   64  A    between atoms: _149  and  _151
REMARK   65  A    between atoms: _151  and  _152
REMARK   66  A    between atoms: _155  and  _157
REMARK   67  A    between atoms: _157  and  _158
REMARK   68  A    between atoms: _157  and  _160
REMARK   69  A    between atoms: _160  and  _161
REMARK   70  A    between atoms: _161  and  _162
REMARK   71  A    between atoms: _162  and  _163
REMARK   72  A    between atoms: _163  and  _164
REMARK   73  A    between atoms: _169  and  _170
REMARK   74  A    between atoms: _175  and  _177
REMARK   75  A    between atoms: _177  and  _178
REMARK   76  A    between atoms: _177  and  _180
REMARK   77  A    between atoms: _180  and  _181
REMARK   78  A    between atoms: _186  and  _188
REMARK   79  A    between atoms: _188  and  _189
REMARK   80  A    between atoms: _188  and  _191
REMARK   81  A    between atoms: _191  and  _192
REMARK   82  A    between atoms: _192  and  _193
REMARK   83  A    between atoms: _195  and  _197
REMARK   84  A    between atoms: _197  and  _198
REMARK   85  A    between atoms: _197  and  _200
REMARK   86  A    between atoms: _200  and  _201
REMARK   87  A    between atoms: _204  and  _206
REMARK   88  A    between atoms: _206  and  _207
REMARK   89  A    between atoms: _206  and  _209
REMARK   90  A    between atoms: _209  and  _210
REMARK   91  A    between atoms: _210  and  _211
REMARK   92  A    between atoms: _211  and  _212
REMARK   93  A    between atoms: _212  and  _213
REMARK   94  A    between atoms: _217  and  _219
REMARK   95  A    between atoms: _219  and  _220
REMARK   96  A    between atoms: _219  and  _222
REMARK   97  A    between atoms: _222  and  _223
REMARK   98  A    between atoms: _225  and  _227
REMARK   99  A    between atoms: _227  and  _228
REMARK  100  A    between atoms: _227  and  _230
REMARK  101  A    between atoms: _230  and  _231
REMARK  102  A    between atoms: _231  and  _232
REMARK  103  A    between atoms: _235  and  _237
REMARK  104  A    between atoms: _237  and  _238
REMARK  105  A    between atoms: _237  and  _240
REMARK  106  A    between atoms: _240  and  _241
REMARK  107  A    between atoms: _243  and  _245
REMARK  108  A    between atoms: _245  and  _246
REMARK  109  A    between atoms: _245  and  _248
REMARK  110  A    between atoms: _248  and  _249
REMARK  111  A    between atoms: _252  and  _254
REMARK  112  A    between atoms: _254  and  _255
REMARK  113  A    between atoms: _254  and  _257
REMARK  114  A    between atoms: _257  and  _258
REMARK  115  A    between atoms: _264  and  _266
REMARK  116  A    between atoms: _266  and  _267
REMARK  117  A    between atoms: _266  and  _269
REMARK  118  A    between atoms: _269  and  _270
REMARK  119  A    between atoms: _270  and  _271
REMARK  120  A    between atoms: _271  and  _272
REMARK  121  A    between atoms: _272  and  _273
REMARK  122  A    between atoms: _277  and  _279
REMARK  123  A    between atoms: _279  and  _280
REMARK  124  A    between atoms: _279  and  _282
REMARK  125  A    between atoms: _282  and  _283
REMARK  126  A    between atoms: _288  and  _290
REMARK  127  A    between atoms: _290  and  _291
REMARK  128  A    between atoms: _290  and  _293
REMARK  129  A    between atoms: _293  and  _294
REMARK  130  A    between atoms: _297  and  _299
REMARK  131  A    between atoms: _299  and  _300
REMARK  132  A    between atoms: _299  and  _302
REMARK  133  A    between atoms: _302  and  _303
REMARK  134  A    between atoms: _303  and  _304
REMARK  135  A    between atoms: _307  and  _309
REMARK  136  A    between atoms: _309  and  _310
REMARK  137  A    between atoms: _309  and  _312
REMARK  138  A    between atoms: _312  and  _313
REMARK  139  A    between atoms: _316  and  _318
REMARK  140  A    between atoms: _318  and  _319
REMARK  141  A    between atoms: _322  and  _324
REMARK  142  A    between atoms: _324  and  _325
REMARK  143  A    between atoms: _324  and  _327
REMARK  144  A    between atoms: _327  and  _328
REMARK  145  A    between atoms: _331  and  _333
REMARK  146  A    between atoms: _333  and  _334
REMARK  147  A    between atoms: _333  and  _336
REMARK  148  A    between atoms: _336  and  _337
REMARK  149  A    between atoms: _340  and  _342
REMARK  150  A    between atoms: _342  and  _343
REMARK  151  A    between atoms: _342  and  _345
REMARK  152  A    between atoms: _345  and  _346
REMARK  153  A    between atoms: _346  and  _347
REMARK  154  A    between atoms: _347  and  _348
REMARK  155  A    between atoms: _357  and  _359
REMARK  156  A    between atoms: _359  and  _360
REMARK  157  A    between atoms: _359  and  _362
REMARK  158  A    between atoms: _362  and  _363
REMARK  159  A    between atoms: _368  and  _370
REMARK  160  A    between atoms: _370  and  _371
REMARK  161  A    between atoms: _370  and  _373
REMARK  162  A    between atoms: _373  and  _374
REMARK  163  A    between atoms: _374  and  _375
REMARK  164  A    between atoms: _380  and  _382
REMARK  165  A    between atoms: _382  and  _383
REMARK  166  A    between atoms: _382  and  _385
REMARK  167  A    between atoms: _385  and  _386
REMARK  168  A    between atoms: _389  and  _391
REMARK  169  A    between atoms: _391  and  _392
REMARK  170  A    between atoms: _391  and  _394
REMARK  171  A    between atoms: _394  and  _395
REMARK  172  A    between atoms: _398  and  _400
REMARK  173  A    between atoms: _400  and  _401
REMARK  174  A    between atoms: _400  and  _403
REMARK  175  A    between atoms: _403  and  _404
REMARK  176  A    between atoms: _407  and  _409
REMARK  177  A    between atoms: _409  and  _410
REMARK  178  A    between atoms: _409  and  _412
REMARK  179  A    between atoms: _412  and  _413
REMARK  180  A    between atoms: _413  and  _414
REMARK  181  A    between atoms: _414  and  _415
REMARK  182  A    between atoms: _415  and  _416
REMARK  183  A    between atoms: _420  and  _422
REMARK  184  A    between atoms: _422  and  _423
REMARK  185  A    between atoms: _422  and  _425
REMARK  186  A    between atoms: _425  and  _426
REMARK  187  A    between atoms: _426  and  _427
REMARK  188  A    between atoms: _427  and  _428
REMARK  189  A    between atoms: _437  and  _439
REMARK  190  A    between atoms: _439  and  _440
REMARK  191  A    between atoms: _439  and  _442
REMARK  192  A    between atoms: _442  and  _443
REMARK  193  A    between atoms: _446  and  _448
REMARK  194  A    between atoms: _448  and  _449
REMARK  195  A    between atoms: _448  and  _451
REMARK  196  A    between atoms: _454  and  _456
REMARK  197  A    between atoms: _456  and  _457
REMARK  198  A    between atoms: _456  and  _459
REMARK  199  A    between atoms: _459  and  _460
REMARK  200  A    between atoms: _460  and  _461
REMARK  201  A    between atoms: _464  and  _466
REMARK  202  A    between atoms: _466  and  _467
REMARK  203  A    between atoms: _466  and  _469
REMARK  204  A    between atoms: _471  and  _473
REMARK  205  A    between atoms: _473  and  _474
REMARK  206  A    between atoms: _473  and  _476
REMARK  207  A    between atoms: _479  and  _481
REMARK  208  A    between atoms: _481  and  _482
REMARK  209  A    between atoms: _481  and  _484
REMARK  210  A    between atoms: _484  and  _485
REMARK  211  A    between atoms: _487  and  _489
REMARK  212  A    between atoms: _489  and  _490
REMARK  213  A    between atoms: _489  and  _492
REMARK  214  A    between atoms: _492  and  _493
REMARK  215  A    between atoms: _496  and  _498
REMARK  216  A    between atoms: _498  and  _499
REMARK  217  A    between atoms: _498  and  _501
REMARK  218  A    between atoms: _501  and  _502
REMARK  219  A    between atoms: _502  and  _503
REMARK  220  A    between atoms: _503  and  _504
REMARK  221  A    between atoms: _513  and  _515
REMARK  222  A    between atoms: _515  and  _516
REMARK  223  A    between atoms: _515  and  _518
REMARK  224  A    between atoms: _521  and  _523
REMARK  225  A    between atoms: _523  and  _524
REMARK  226  A    between atoms: _523  and  _526
REMARK  227  A    between atoms: _526  and  _527
REMARK  228  A    between atoms: _532  and  _533
REMARK                            x       y       z     vdW  Elec       q    Type
REMARK                         _______ _______ _______ _____ _____    ______ ____
ROOT
ATOM      1  CA  LEU A   1      22.490  49.793   5.813  0.00  0.00    +0.133 C 
ENDROOT
BRANCH   1   2
ATOM      2  N   LEU A   1      22.796  50.981   5.034  0.00  0.00    -0.239 NA
ATOM      3  H   LEU A   1      23.600  51.577   5.317  0.00  0.00    +0.142 HD
ENDBRANCH   1   2
BRANCH   1   4
ATOM      4  C   LEU A   1      22.074  50.341   7.180  0.00  0.00    +0.224 C 
ATOM      5  O   LEU A   1      22.854  51.043   7.838  0.00  0.00    -0.287 OA
ENDBRANCH   1   4
BRANCH   1   6
ATOM      6  CB  LEU A   1      23.715  48.883   5.900  0.00  0.00    +0.025 C 
BRANCH   6   7
ATOM      7  CG  LEU A   1      23.573  47.467   6.478  0.00  0.00    +0.002 C 
ATOM      8  CD2 LEU A   1      23.273  47.495   7.950  0.00  0.00    +0.000 C 
ATOM      9  CD1 LEU A   1      24.848  46.703   6.210  0.00  0.00    +0.000 C 
ENDBRANCH   6   7
ENDBRANCH   1   6
TORSDOF 4
REMARK  Name = ../refined-set-2016/2hnx/2hnx_pocket.pdb
REMARK  228 active torsions:
REMARK  status: ('A' for Active; 'I' for Inactive)
REMARK    1  A    between atoms: _1  and  _3
REMARK    2  A    between atoms: _3  and  _4
REMARK    3  A    between atoms: _3  and  _6
REMARK    4  A    between atoms: _6  and  _7
REMARK    5  A    between atoms: _10  and  _12
REMARK    6  A    between atoms: _12  and  _13
REMARK    7  A    between atoms: _12  and  _15
REMARK    8  A    between atoms: _15  and  _16
REMARK    9  A    between atoms: _18  and  _20
REMARK   10  A    between atoms: _20  and  _21
REMARK   11  A    between atoms: _20  and  _23
REMARK   12  A    between atoms: _23  and  _24
REMARK   13  A    between atoms: _26  and  _28
REMARK   14  A    between atoms: _28  and  _29
REMARK   15  A    between atoms: _28  and  _31
REMARK   16  A    between atoms: _31  and  _32
REMARK   17  A    between atoms: _38  and  _40
REMARK   18  A    between atoms: _40  and  _41
REMARK   19  A    between atoms: _40  and  _43
REMARK   20  A    between atoms: _43  and  _44
REMARK   21  A    between atoms: _49  and  _50
REMARK   22  A    between atoms: _52  and  _54
REMARK   23  A    between atoms: _54  and  _55
REMARK   24  A    between atoms: _54  and  _57
REMARK   25  A    between atoms: _57  and  _58
REMARK   26  A    between atoms: _58  and  _59
REMARK   27  A    between atoms: _61  and  _63
REMARK   28  A    between atoms: _63  and  _64
REMARK   29  A    between atoms: _63  and  _66
REMARK   30  A    between atoms: _66  and  _67
REMARK   31  A    between atoms: _67  and  _68
REMARK   32  A    between atoms: _68  and  _69
REMARK   33  A    between atoms: _69  and  _70
REMARK   34  A    between atoms: _74  and  _76
REMARK   35  A    between atoms: _76  and  _77
REMARK   36  A    between atoms: _76  and  _79
REMARK   37  A    between atoms: _82  and  _84
REMARK   38  A    between atoms: _84  and  _85
REMARK   39  A    between atoms: _84  and  _87
REMARK   40  A    between atoms: _90  and  _92
REMARK   41  A    between atoms: _92  and  _93
REMARK   42  A    between atoms: _95  and  _97
REMARK   43  A    between atoms: _97  and  _98
REMARK   44  A    between atoms: _97  and  _100
REMARK   45  A    between atoms: _100  and  _101
REMARK   46  A    between atoms: _104  and  _106
REMARK   47  A    between atoms: _106  and  _107
REMARK   48  A    between atoms: _106  and  _109
REMARK   49  A    between atoms: _109  and  _110
REMARK   50  A    between atoms: _110  and  _111
REMARK   51  A    between atoms: _111  and  _112
REMARK   52  A    between atoms: _121  and  _123
REMARK   53  A    between atoms: _123  and  _124
REMARK   54  A    between atoms: _123  and  _126
REMARK   55  A    between atoms: _129  and  _131
REMARK   56  A    between atoms: _131  and  _132
REMARK   57  A    between atoms: _135  and  _137
REMARK   58  A    between atoms: _137  and  _138
REMARK   59  A    between atoms: _140  and  _142
REMARK   60  A    between atoms: _142  and  _143
REMARK   61  A    between atoms: _142  and  _145
REMARK   62  A    between atoms: _145  and  _146
REMARK   63  A    between atoms: _146  and  _147
REMARK   64  A    between atoms: _149  and  _151
REMARK   65  A    between atoms: _151  and  _152
REMARK   66  A    between atoms: _155  and  _157
REMARK   67  A    between atoms: _157  and  _158
REMARK   68  A    between atoms: _157  and  _160
REMARK   69  A    between atoms: _160  and  _161
REMARK   70  A    between atoms: _161  and  _162
REMARK   71  A    between atoms: _162  and  _163
REMARK   72  A    between atoms: _163  and  _164
REMARK   73  A    between atoms: _169  and  _170
REMARK   74  A    between atoms: _175  and  _177
REMARK   75  A    between atoms: _177  and  _178
REMARK   76  A    between atoms: _177  and  _180
REMARK   77  A    between atoms: _180  and  _181
REMARK   78  A    between atoms: _186  and  _188
REMARK   79  A    between atoms: _188  and  _189
REMARK   80  A    between atoms: _188  and  _191
REMARK   81  A    between atoms: _191  and  _192
REMARK   82  A    between atoms: _192  and  _193
REMARK   83  A    between atoms: _195  and  _197
REMARK   84  A    between atoms: _197  and  _198
REMARK   85  A    between atoms: _197  and  _200
REMARK   86  A    between atoms: _200  and  _201
REMARK   87  A    between atoms: _204  and  _206
REMARK   88  A    between atoms: _206  and  _207
REMARK   89  A    between atoms: _206  and  _209
REMARK   90  A    between atoms: _209  and  _210
REMARK   91  A    between atoms: _210  and  _211
REMARK   92  A    between atoms: _211  and  _212
REMARK   93  A    between atoms: _212  and  _213
REMARK   94  A    between atoms: _217  and  _219
REMARK   95  A    between atoms: _219  and  _220
REMARK   96  A    between atoms: _219  and  _222
REMARK   97  A    between atoms: _222  and  _223
REMARK   98  A    between atoms: _225  and  _227
REMARK   99  A    between atoms: _227  and  _228
REMARK  100  A    between atoms: _227  and  _230
REMARK  101  A    between atoms: _230  and  _231
REMARK  102  A    between atoms: _231  and  _232
REMARK  103  A    between atoms: _235  and  _237
REMARK  104  A    between atoms: _237  and  _238
REMARK  105  A    between atoms: _237  and  _240
REMARK  106  A    between atoms: _240  and  _241
REMARK  107  A    between atoms: _243  and  _245
REMARK  108  A    between atoms: _245  and  _246
REMARK  109  A    between atoms: _245  and  _248
REMARK  110  A    between atoms: _248  and  _249
REMARK  111  A    between atoms: _252  and  _254
REMARK  112  A    between atoms: _254  and  _255
REMARK  113  A    between atoms: _254  and  _257
REMARK  114  A    between atoms: _257  and  _258
REMARK  115  A    between atoms: _264  and  _266
REMARK  116  A    between atoms: _266  and  _267
REMARK  117  A    between atoms: _266  and  _269
REMARK  118  A    between atoms: _269  and  _270
REMARK  119  A    between atoms: _270  and  _271
REMARK  120  A    between atoms: _271  and  _272
REMARK  121  A    between atoms: _272  and  _273
REMARK  122  A    between atoms: _277  and  _279
REMARK  123  A    between atoms: _279  and  _280
REMARK  124  A    between atoms: _279  and  _282
REMARK  125  A    between atoms: _282  and  _283
REMARK  126  A    between atoms: _288  and  _290
REMARK  127  A    between atoms: _290  and  _291
REMARK  128  A    between atoms: _290  and  _293
REMARK  129  A    between atoms: _293  and  _294
REMARK  130  A    between atoms: _297  and  _299
REMARK  131  A    between atoms: _299  and  _300
REMARK  132  A    between atoms: _299  and  _302
REMARK  133  A    between atoms: _302  and  _303
REMARK  134  A    between atoms: _303  and  _304
REMARK  135  A    between atoms: _307  and  _309
REMARK  136  A    between atoms: _309  and  _310
REMARK  137  A    between atoms: _309  and  _312
REMARK  138  A    between atoms: _312  and  _313
REMARK  139  A    between atoms: _316  and  _318
REMARK  140  A    between atoms: _318  and  _319
REMARK  141  A    between atoms: _322  and  _324
REMARK  142  A    between atoms: _324  and  _325
REMARK  143  A    between atoms: _324  and  _327
REMARK  144  A    between atoms: _327  and  _328
REMARK  145  A    between atoms: _331  and  _333
REMARK  146  A    between atoms: _333  and  _334
REMARK  147  A    between atoms: _333  and  _336
REMARK  148  A    between atoms: _336  and  _337
REMARK  149  A    between atoms: _340  and  _342
REMARK  150  A    between atoms: _342  and  _343
REMARK  151  A    between atoms: _342  and  _345
REMARK  152  A    between atoms: _345  and  _346
REMARK  153  A    between atoms: _346  and  _347
REMARK  154  A    between atoms: _347  and  _348
REMARK  155  A    between atoms: _357  and  _359
REMARK  156  A    between atoms: _359  and  _360
REMARK  157  A    between atoms: _359  and  _362
REMARK  158  A    between atoms: _362  and  _363
REMARK  159  A    between atoms: _368  and  _370
REMARK  160  A    between atoms: _370  and  _371
REMARK  161  A    between atoms: _370  and  _373
REMARK  162  A    between atoms: _373  and  _374
REMARK  163  A    between atoms: _374  and  _375
REMARK  164  A    between atoms: _380  and  _382
REMARK  165  A    between atoms: _382  and  _383
REMARK  166  A    between atoms: _382  and  _385
REMARK  167  A    between atoms: _385  and  _386
REMARK  168  A    between atoms: _389  and  _391
REMARK  169  A    between atoms: _391  and  _392
REMARK  170  A    between atoms: _391  and  _394
REMARK  171  A    between atoms: _394  and  _395
REMARK  172  A    between atoms: _398  and  _400
REMARK  173  A    between atoms: _400  and  _401
REMARK  174  A    between atoms: _400  and  _403
REMARK  175  A    between atoms: _403  and  _404
REMARK  176  A    between atoms: _407  and  _409
REMARK  177  A    between atoms: _409  and  _410
REMARK  178  A    between atoms: _409  and  _412
REMARK  179  A    between atoms: _412  and  _413
REMARK  180  A    between atoms: _413  and  _414
REMARK  181  A    between atoms: _414  and  _415
REMARK  182  A    between atoms: _415  and  _416
REMARK  183  A    between atoms: _420  and  _422
REMARK  184  A    between atoms: _422  and  _423
REMARK  185  A    between atoms: _422  and  _425
REMARK  186  A    between atoms: _425  and  _426
REMARK  187  A    between atoms: _426  and  _427
REMARK  188  A    between atoms: _427  and  _428
REMARK  189  A    between atoms: _437  and  _439
REMARK  190  A    between atoms: _439  and  _440
REMARK  191  A    between atoms: _439  and  _442
REMARK  192  A    between atoms: _442  and  _443
REMARK  193  A    between atoms: _446  and  _448
REMARK  194  A    between atoms: _448  and  _449
REMARK  195  A    between atoms: _448  and  _451
REMARK  196  A    between atoms: _454  and  _456
REMARK  197  A    between atoms: _456  and  _457
REMARK  198  A    between atoms: _456  and  _459
REMARK  199  A    between atoms: _459  and  _460
REMARK  200  A    between atoms: _460  and  _461
REMARK  201  A    between atoms: _464  and  _466
REMARK  202  A    between atoms: _466  and  _467
REMARK  203  A    between atoms: _466  and  _469
REMARK  204  A    between atoms: _471  and  _473
REMARK  205  A    between atoms: _473  and  _474
REMARK  206  A    between atoms: _473  and  _476
REMARK  207  A    between atoms: _479  and  _481
REMARK  208  A    between atoms: _481  and  _482
REMARK  209  A    between atoms: _481  and  _484
REMARK  210  A    between atoms: _484  and  _485
REMARK  211  A    between atoms: _487  and  _489
REMARK  212  A    between atoms: _489  and  _490
REMARK  213  A    between atoms: _489  and  _492
REMARK  214  A    between atoms: _492  and  _493
REMARK  215  A    between atoms: _496  and  _498
REMARK  216  A    between atoms: _498  and  _499
REMARK  217  A    between atoms: _498  and  _501
REMARK  218  A    between atoms: _501  and  _502
REMARK  219  A    between atoms: _502  and  _503
REMARK  220  A    between atoms: _503  and  _504
REMARK  221  A    between atoms: _513  and  _515
REMARK  222  A    between atoms: _515  and  _516
REMARK  223  A    between atoms: _515  and  _518
REMARK  224  A    between atoms: _521  and  _523
REMARK  225  A    between atoms: _523  and  _524
REMARK  226  A    between atoms: _523  and  _526
REMARK  227  A    between atoms: _526  and  _527
REMARK  228  A    between atoms: _532  and  _533
REMARK                            x       y       z     vdW  Elec       q    Type
REMARK                         _______ _______ _______ _____ _____    ______ ____
ROOT
ATOM      1  C   GLU A   2      18.115  47.942  15.822  0.00  0.00    +0.241 C 
ATOM      2  N   CYS A   3      18.508  48.461  16.986  0.00  0.00    -0.296 N 
ATOM      3  H   CYS A   3      18.626  49.492  17.059  0.00  0.00    +0.150 HD
ATOM      4  O   GLU A   2      17.969  46.737  15.633  0.00  0.00    -0.273 OA
ENDROOT
BRANCH   1   5
ATOM      5  CA  GLU A   2      17.911  48.906  14.662  0.00  0.00    +0.149 C 
BRANCH   5   8
ATOM      6  C   VAL A   1      19.891  49.302  13.240  0.00  0.00    +0.238 C 
ATOM      7  O   VAL A   1      20.139  50.399  13.757  0.00  0.00    -0.274 OA
ATOM      8  N   GLU A   2      18.859  48.538  13.589  0.00  0.00    -0.297 N 
ATOM      9  H   GLU A   2      18.713  47.641  13.084  0.00  0.00    +0.150 HD
BRANCH   6  10
ATOM     10  CA  VAL A   1      20.770  48.777  12.110  0.00  0.00    +0.145 C 
BRANCH  10  11
ATOM     11  CB  VAL A   1      22.217  48.555  12.619  0.00  0.00    +0.025 C 
ATOM     12  CG2 VAL A   1      22.260  47.432  13.640  0.00  0.00    +0.002 C 
ATOM     13  CG1 VAL A   1      23.168  48.243  11.461  0.00  0.00    +0.002 C 
ENDBRANCH  10  11
BRANCH  10  14
ATOM     14  N   VAL A   1      20.718  49.760  11.024  0.00  0.00    -0.238 NA
ATOM     15  H   VAL A   1      21.097  50.714  11.193  0.00  0.00    +0.142 HD
ENDBRANCH  10  14
ENDBRANCH   6  10
ENDBRANCH   5   8
BRANCH   5  16
ATOM     16  CB  GLU A   2      16.457  48.808  14.154  0.00  0.00    +0.041 C 
BRANCH  16  17
ATOM     17  CG  GLU A   2      15.359  49.189  15.147  0.00  0.00    +0.116 C 
BRANCH  17  18
ATOM     18  CD  GLU A   2      13.936  48.965  14.608  0.00  0.00    +0.365 C 
ATOM     19  OE2 GLU A   2      12.953  49.247  15.338  0.00  0.00    -0.246 OA
ATOM     20  OE1 GLU A   2      13.786  48.518  13.450  0.00  0.00    -0.246 OA
ENDBRANCH  17  18
ENDBRANCH  16  17
ENDBRANCH   5  16
ENDBRANCH   1   5
BRANCH   2  21
ATOM     21  CA  CYS A   3      18.778  47.642  18.157  0.00  0.00    +0.160 C 
BRANCH  21  22
ATOM     22  C   CYS A   3      17.666  47.879  19.159  0.00  0.00    +0.242 C 
ATOM     23  N   VAL A   4      17.005  46.807  19.580  0.00  0.00    -0.298 N 
ATOM     24  H   VAL A   4      17.323  45.860  19.290  0.00  0.00    +0.150 HD
ATOM     25  O   CYS A   3      17.393  49.025  19.521  0.00  0.00    -0.273 OA
BRANCH  23  26
ATOM     26  CA  VAL A   4      15.834  46.944  20.448  0.00  0.00    +0.137 C 
BRANCH  26  27
ATOM     27  CB  VAL A   4      14.530  46.511  19.724  0.00  0.00    +0.026 C 
ATOM     28  CG2 VAL A   4      13.344  46.593  20.666  0.00  0.00    +0.002 C 
ATOM     29  CG1 VAL A   4      14.291  47.381  18.520  0.00  0.00    +0.002 C 
ENDBRANCH  26  27
BRANCH  26  30
ATOM     30  C   VAL A   4      15.998  46.145  21.732  0.00  0.00    +0.227 C 
ATOM     31  O   VAL A   4      16.343  44.964  21.700  0.00  0.00    -0.286 OA
ENDBRANCH  26  30
ENDBRANCH  23  26
ENDBRANCH  21  22
BRANCH  21  32
ATOM     32  CB  CYS A   3      20.119  48.026  18.790  0.00  0.00    +0.098 C 
ATOM     33  SG  CYS A   3      21.468  48.112  17.623  0.00  0.00    -0.080 S 
ENDBRANCH  21  32
ENDBRANCH   2  21
TORSDOF 14
REMARK  Name = ../refined-set-2016/2hnx/2hnx_pocket.pdb
REMARK  228 active torsions:
REMARK  status: ('A' for Active; 'I' for Inactive)
REMARK    1  A    between atoms: _1  and  _3
REMARK    2  A    between atoms: _3  and  _4
REMARK    3  A    between atoms: _3  and  _6
REMARK    4  A    between atoms: _6  and  _7
REMARK    5  A    between atoms: _10  and  _12
REMARK    6  A    between atoms: _12  and  _13
REMARK    7  A    between atoms: _12  and  _15
REMARK    8  A    between atoms: _15  and  _16
REMARK    9  A    between atoms: _18  and  _20
REMARK   10  A    between atoms: _20  and  _21
REMARK   11  A    between atoms: _20  and  _23
REMARK   12  A    between atoms: _23  and  _24
REMARK   13  A    between atoms: _26  and  _28
REMARK   14  A    between atoms: _28  and  _29
REMARK   15  A    between atoms: _28  and  _31
REMARK   16  A    between atoms: _31  and  _32
REMARK   17  A    between atoms: _38  and  _40
REMARK   18  A    between atoms: _40  and  _41
REMARK   19  A    between atoms: _40  and  _43
REMARK   20  A    between atoms: _43  and  _44
REMARK   21  A    between atoms: _49  and  _50
REMARK   22  A    between atoms: _52  and  _54
REMARK   23  A    between atoms: _54  and  _55
REMARK   24  A    between atoms: _54  and  _57
REMARK   25  A    between atoms: _57  and  _58
REMARK   26  A    between atoms: _58  and  _59
REMARK   27  A    between atoms: _61  and  _63
REMARK   28  A    between atoms: _63  and  _64
REMARK   29  A    between atoms: _63  and  _66
REMARK   30  A    between atoms: _66  and  _67
REMARK   31  A    between atoms: _67  and  _68
REMARK   32  A    between atoms: _68  and  _69
REMARK   33  A    between atoms: _69  and  _70
REMARK   34  A    between atoms: _74  and  _76
REMARK   35  A    between atoms: _76  and  _77
REMARK   36  A    between atoms: _76  and  _79
REMARK   37  A    between atoms: _82  and  _84
REMARK   38  A    between atoms: _84  and  _85
REMARK   39  A    between atoms: _84  and  _87
REMARK   40  A    between atoms: _90  and  _92
REMARK   41  A    between atoms: _92  and  _93
REMARK   42  A    between atoms: _95  and  _97
REMARK   43  A    between atoms: _97  and  _98
REMARK   44  A    between atoms: _97  and  _100
REMARK   45  A    between atoms: _100  and  _101
REMARK   46  A    between atoms: _104  and  _106
REMARK   47  A    between atoms: _106  and  _107
REMARK   48  A    between atoms: _106  and  _109
REMARK   49  A    between atoms: _109  and  _110
REMARK   50  A    between atoms: _110  and  _111
REMARK   51  A    between atoms: _111  and  _112
REMARK   52  A    between atoms: _121  and  _123
REMARK   53  A    between atoms: _123  and  _124
REMARK   54  A    between atoms: _123  and  _126
REMARK   55  A    between atoms: _129  and  _131
REMARK   56  A    between atoms: _131  and  _132
REMARK   57  A    between atoms: _135  and  _137
REMARK   58  A    between atoms: _137  and  _138
REMARK   59  A    between atoms: _140  and  _142
REMARK   60  A    between atoms: _142  and  _143
REMARK   61  A    between atoms: _142  and  _145
REMARK   62  A    between atoms: _145  and  _146
REMARK   63  A    between atoms: _146  and  _147
REMARK   64  A    between atoms: _149  and  _151
REMARK   65  A    between atoms: _151  and  _152
REMARK   66  A    between atoms: _155  and  _157
REMARK   67  A    between atoms: _157  and  _158
REMARK   68  A    between atoms: _157  and  _160
REMARK   69  A    between atoms: _160  and  _161
REMARK   70  A    between atoms: _161  and  _162
REMARK   71  A    between atoms: _162  and  _163
REMARK   72  A    between atoms: _163  and  _164
REMARK   73  A    between atoms: _169  and  _170
REMARK   74  A    between atoms: _175  and  _177
REMARK   75  A    between atoms: _177  and  _178
REMARK   76  A    between atoms: _177  and  _180
REMARK   77  A    between atoms: _180  and  _181
REMARK   78  A    between atoms: _186  and  _188
REMARK   79  A    between atoms: _188  and  _189
REMARK   80  A    between atoms: _188  and  _191
REMARK   81  A    between atoms: _191  and  _192
REMARK   82  A    between atoms: _192  and  _193
REMARK   83  A    between atoms: _195  and  _197
REMARK   84  A    between atoms: _197  and  _198
REMARK   85  A    between atoms: _197  and  _200
REMARK   86  A    between atoms: _200  and  _201
REMARK   87  A    between atoms: _204  and  _206
REMARK   88  A    between atoms: _206  and  _207
REMARK   89  A    between atoms: _206  and  _209
REMARK   90  A    between atoms: _209  and  _210
REMARK   91  A    between atoms: _210  and  _211
REMARK   92  A    between atoms: _211  and  _212
REMARK   93  A    between atoms: _212  and  _213
REMARK   94  A    between atoms: _217  and  _219
REMARK   95  A    between atoms: _219  and  _220
REMARK   96  A    between atoms: _219  and  _222
REMARK   97  A    between atoms: _222  and  _223
REMARK   98  A    between atoms: _225  and  _227
REMARK   99  A    between atoms: _227  and  _228
REMARK  100  A    between atoms: _227  and  _230
REMARK  101  A    between atoms: _230  and  _231
REMARK  102  A    between atoms: _231  and  _232
REMARK  103  A    between atoms: _235  and  _237
REMARK  104  A    between atoms: _237  and  _238
REMARK  105  A    between atoms: _237  and  _240
REMARK  106  A    between atoms: _240  and  _241
REMARK  107  A    between atoms: _243  and  _245
REMARK  108  A    between atoms: _245  and  _246
REMARK  109  A    between atoms: _245  and  _248
REMARK  110  A    between atoms: _248  and  _249
REMARK  111  A    between atoms: _252  and  _254
REMARK  112  A    between atoms: _254  and  _255
REMARK  113  A    between atoms: _254  and  _257
REMARK  114  A    between atoms: _257  and  _258
REMARK  115  A    between atoms: _264  and  _266
REMARK  116  A    between atoms: _266  and  _267
REMARK  117  A    between atoms: _266  and  _269
REMARK  118  A    between atoms: _269  and  _270
REMARK  119  A    between atoms: _270  and  _271
REMARK  120  A    between atoms: _271  and  _272
REMARK  121  A    between atoms: _272  and  _273
REMARK  122  A    between atoms: _277  and  _279
REMARK  123  A    between atoms: _279  and  _280
REMARK  124  A    between atoms: _279  and  _282
REMARK  125  A    between atoms: _282  and  _283
REMARK  126  A    between atoms: _288  and  _290
REMARK  127  A    between atoms: _290  and  _291
REMARK  128  A    between atoms: _290  and  _293
REMARK  129  A    between atoms: _293  and  _294
REMARK  130  A    between atoms: _297  and  _299
REMARK  131  A    between atoms: _299  and  _300
REMARK  132  A    between atoms: _299  and  _302
REMARK  133  A    between atoms: _302  and  _303
REMARK  134  A    between atoms: _303  and  _304
REMARK  135  A    between atoms: _307  and  _309
REMARK  136  A    between atoms: _309  and  _310
REMARK  137  A    between atoms: _309  and  _312
REMARK  138  A    between atoms: _312  and  _313
REMARK  139  A    between atoms: _316  and  _318
REMARK  140  A    between atoms: _318  and  _319
REMARK  141  A    between atoms: _322  and  _324
REMARK  142  A    between atoms: _324  and  _325
REMARK  143  A    between atoms: _324  and  _327
REMARK  144  A    between atoms: _327  and  _328
REMARK  145  A    between atoms: _331  and  _333
REMARK  146  A    between atoms: _333  and  _334
REMARK  147  A    between atoms: _333  and  _336
REMARK  148  A    between atoms: _336  and  _337
REMARK  149  A    between atoms: _340  and  _342
REMARK  150  A    between atoms: _342  and  _343
REMARK  151  A    between atoms: _342  and  _345
REMARK  152  A    between atoms: _345  and  _346
REMARK  153  A    between atoms: _346  and  _347
REMARK  154  A    between atoms: _347  and  _348
REMARK  155  A    between atoms: _357  and  _359
REMARK  156  A    between atoms: _359  and  _360
REMARK  157  A    between atoms: _359  and  _362
REMARK  158  A    between atoms: _362  and  _363
REMARK  159  A    between atoms: _368  and  _370
REMARK  160  A    between atoms: _370  and  _371
REMARK  161  A    between atoms: _370  and  _373
REMARK  162  A    between atoms: _373  and  _374
REMARK  163  A    between atoms: _374  and  _375
REMARK  164  A    between atoms: _380  and  _382
REMARK  165  A    between atoms: _382  and  _383
REMARK  166  A    between atoms: _382  and  _385
REMARK  167  A    between atoms: _385  and  _386
REMARK  168  A    between atoms: _389  and  _391
REMARK  169  A    between atoms: _391  and  _392
REMARK  170  A    between atoms: _391  and  _394
REMARK  171  A    between atoms: _394  and  _395
REMARK  172  A    between atoms: _398  and  _400
REMARK  173  A    between atoms: _400  and  _401
REMARK  174  A    between atoms: _400  and  _403
REMARK  175  A    between atoms: _403  and  _404
REMARK  176  A    between atoms: _407  and  _409
REMARK  177  A    between atoms: _409  and  _410
REMARK  178  A    between atoms: _409  and  _412
REMARK  179  A    between atoms: _412  and  _413
REMARK  180  A    between atoms: _413  and  _414
REMARK  181  A    between atoms: _414  and  _415
REMARK  182  A    between atoms: _415  and  _416
REMARK  183  A    between atoms: _420  and  _422
REMARK  184  A    between atoms: _422  and  _423
REMARK  185  A    between atoms: _422  and  _425
REMARK  186  A    between atoms: _425  and  _426
REMARK  187  A    between atoms: _426  and  _427
REMARK  188  A    between atoms: _427  and  _428
REMARK  189  A    between atoms: _437  and  _439
REMARK  190  A    between atoms: _439  and  _440
REMARK  191  A    between atoms: _439  and  _442
REMARK  192  A    between atoms: _442  and  _443
REMARK  193  A    between atoms: _446  and  _448
REMARK  194  A    between atoms: _448  and  _449
REMARK  195  A    between atoms: _448  and  _451
REMARK  196  A    between atoms: _454  and  _456
REMARK  197  A    between atoms: _456  and  _457
REMARK  198  A    between atoms: _456  and  _459
REMARK  199  A    between atoms: _459  and  _460
REMARK  200  A    between atoms: _460  and  _461
REMARK  201  A    between atoms: _464  and  _466
REMARK  202  A    between atoms: _466  and  _467
REMARK  203  A    between atoms: _466  and  _469
REMARK  204  A    between atoms: _471  and  _473
REMARK  205  A    between atoms: _473  and  _474
REMARK  206  A    between atoms: _473  and  _476
REMARK  207  A    between atoms: _479  and  _481
REMARK  208  A    between atoms: _481  and  _482
REMARK  209  A    between atoms: _481  and  _484
REMARK  210  A    between atoms: _484  and  _485
REMARK  211  A    between atoms: _487  and  _489
REMARK  212  A    between atoms: _489  and  _490
REMARK  213  A    between atoms: _489  and  _492
REMARK  214  A    between atoms: _492  and  _493
REMARK  215  A    between atoms: _496  and  _498
REMARK  216  A    between atoms: _498  and  _499
REMARK  217  A    between atoms: _498  and  _501
REMARK  218  A    between atoms: _501  and  _502
REMARK  219  A    between atoms: _502  and  _503
REMARK  220  A    between atoms: _503  and  _504
REMARK  221  A    between atoms: _513  and  _515
REMARK  222  A    between atoms: _515  and  _516
REMARK  223  A    between atoms: _515  and  _518
REMARK  224  A    between atoms: _521  and  _523
REMARK  225  A    between atoms: _523  and  _524
REMARK  226  A    between atoms: _523  and  _526
REMARK  227  A    between atoms: _526  and  _527
REMARK  228  A    between atoms: _532  and  _533
REMARK                            x       y       z     vdW  Elec       q    Type
REMARK                         _______ _______ _______ _____ _____    ______ ____
ROOT
ATOM      1  CA  ARG A   3      22.423  53.308  13.553  0.00  0.00    +0.149 C 
ENDROOT
BRANCH   1   4
ATOM      2  C   THR A   2      20.360  53.850  14.731  0.00  0.00    +0.243 C 
ATOM      3  O   THR A   2      20.758  54.970  15.041  0.00  0.00    -0.273 OA
ATOM      4  N   ARG A   3      21.073  52.999  14.009  0.00  0.00    -0.297 N 
ATOM      5  H   ARG A   3      20.656  52.080  13.759  0.00  0.00    +0.150 HD
BRANCH   2   6
ATOM      6  CA  THR A   2      18.978  53.385  15.127  0.00  0.00    +0.176 C 
BRANCH   6   9
ATOM      7  C   SER A   1      18.709  52.442  17.349  0.00  0.00    +0.241 C 
ATOM      8  O   SER A   1      18.658  51.286  16.907  0.00  0.00    -0.274 OA
ATOM      9  N   THR A   2      18.851  53.509  16.571  0.00  0.00    -0.295 N 
ATOM     10  H   THR A   2      18.872  54.454  17.004  0.00  0.00    +0.150 HD
BRANCH   7  11
ATOM     11  CA  SER A   1      18.575  52.701  18.834  0.00  0.00    +0.174 C 
BRANCH  11  12
ATOM     12  N   SER A   1      17.500  51.843  19.351  0.00  0.00    -0.236 NA
ATOM     13  H   SER A   1      17.598  50.811  19.272  0.00  0.00    +0.142 HD
ENDBRANCH  11  12
BRANCH  11  14
ATOM     14  CB  SER A   1      19.888  52.391  19.534  0.00  0.00    +0.163 C 
BRANCH  14  15
ATOM     15  OG  SER A   1      20.965  52.997  18.846  0.00  0.00    -0.380 OA
ATOM     16  H   SER A   1      20.832  53.978  18.826  0.00  0.00    +0.211 HD
ENDBRANCH  14  15
ENDBRANCH  11  14
ENDBRANCH   7  11
ENDBRANCH   6   9
BRANCH   6  17
ATOM     17  CB  THR A   2      17.904  54.215  14.390  0.00  0.00    +0.137 C 
ATOM     18  CG2 THR A   2      18.034  54.086  12.836  0.00  0.00    +0.034 C 
BRANCH  17  19
ATOM     19  OG1 THR A   2      16.607  53.767  14.807  0.00  0.00    -0.382 OA
ATOM     20  HG1 THR A   2      16.503  52.808  14.583  0.00  0.00    +0.210 HD
ENDBRANCH  17  19
ENDBRANCH   6  17
ENDBRANCH   2   6
ENDBRANCH   1   4
BRANCH   1  21
ATOM     21  C   ARG A   3      22.484  53.147  12.059  0.00  0.00    +0.241 C 
ATOM     22  O   ARG A   3      22.070  52.114  11.520  0.00  0.00    -0.273 OA
ATOM     23  N   VAL A   4      22.982  54.184  11.390  0.00  0.00    -0.297 N 
ATOM     24  H   VAL A   4      23.384  54.987  11.914  0.00  0.00    +0.150 HD
BRANCH  23  25
ATOM     25  CA  VAL A   4      22.972  54.210   9.942  0.00  0.00    +0.149 C 
BRANCH  25  26
ATOM     26  C   VAL A   4      24.374  54.094   9.424  0.00  0.00    +0.241 C 
ATOM     27  O   VAL A   4      25.270  54.817   9.874  0.00  0.00    -0.273 OA
ATOM     28  N   TYR A   5      24.553  53.162   8.492  0.00  0.00    -0.298 N 
ATOM     29  H   TYR A   5      23.745  52.564   8.224  0.00  0.00    +0.150 HD
BRANCH  28  30
ATOM     30  CA  TYR A   5      25.833  52.943   7.831  0.00  0.00    +0.141 C 
BRANCH  30  31
ATOM     31  C   TYR A   5      25.726  53.273   6.340  0.00  0.00    +0.227 C 
ATOM     32  O   TYR A   5      24.699  53.028   5.707  0.00  0.00    -0.286 OA
ENDBRANCH  30  31
BRANCH  30  33
ATOM     33  CB  TYR A   5      26.278  51.480   7.988  0.00  0.00    +0.054 C 
BRANCH  33  34
ATOM     34  CG  TYR A   5      26.728  51.084   9.383  0.00  0.00    -0.020 A 
ATOM     35  CD2 TYR A   5      25.802  50.857  10.402  0.00  0.00    -0.001 A 
ATOM     36  CE2 TYR A   5      26.228  50.488  11.677  0.00  0.00    +0.036 A 
ATOM     37  CZ  TYR A   5      27.600  50.338  11.933  0.00  0.00    +0.134 A 
ATOM     38  CE1 TYR A   5      28.532  50.544  10.933  0.00  0.00    +0.036 A 
ATOM     39  CD1 TYR A   5      28.092  50.922   9.669  0.00  0.00    -0.001 A 
BRANCH  37  40
ATOM     40  OH  TYR A   5      28.043  49.974  13.182  0.00  0.00    -0.506 OA
ATOM     41  HH  TYR A   5      27.267  49.863  13.787  0.00  0.00    +0.292 HD
ENDBRANCH  37  40
ENDBRANCH  33  34
ENDBRANCH  30  33
ENDBRANCH  28  30
ENDBRANCH  25  26
BRANCH  25  42
ATOM     42  CB  VAL A   4      22.281  55.486   9.386  0.00  0.00    +0.027 C 
ATOM     43  CG2 VAL A   4      20.810  55.507   9.830  0.00  0.00    +0.002 C 
ATOM     44  CG1 VAL A   4      22.385  55.548   7.865  0.00  0.00    +0.002 C 
ENDBRANCH  25  42
ENDBRANCH  23  25
ENDBRANCH   1  21
BRANCH   1  45
ATOM     45  CB  ARG A   3      23.438  52.429  14.267  0.00  0.00    +0.033 C 
BRANCH  45  46
ATOM     46  CG  ARG A   3      23.622  52.980  15.680  0.00  0.00    +0.045 C 
BRANCH  46  47
ATOM     47  CD  ARG A   3      24.132  52.008  16.636  0.00  0.00    +0.174 C 
BRANCH  47  48
ATOM     48  NE  ARG A   3      25.557  51.715  16.489  0.00  0.00    -0.265 N 
ATOM     49  CZ  ARG A   3      26.563  52.433  16.994  0.00  0.00    +0.342 C 
ATOM     50  NH2 ARG A   3      26.378  53.610  17.587  0.00  0.00    -0.292 N 
ATOM     51 HH21 ARG A   3      27.192  54.135  17.966  0.00  0.00    +0.255 HD
ATOM     52 HH22 ARG A   3      25.420  54.005  17.671  0.00  0.00    +0.255 HD
ATOM     53  NH1 ARG A   3      27.792  51.972  16.855  0.00  0.00    -0.292 N 
ATOM     54 HH11 ARG A   3      28.596  52.510  17.238  0.00  0.00    +0.255 HD
ATOM     55 HH12 ARG A   3      27.957  51.071  16.362  0.00  0.00    +0.255 HD
ATOM     56  HE  ARG A   3      25.810  50.869  15.940  0.00  0.00    +0.259 HD
ENDBRANCH  47  48
ENDBRANCH  46  47
ENDBRANCH  45  46
ENDBRANCH   1  45
TORSDOF 22
REMARK  Name = ../refined-set-2016/2hnx/2hnx_pocket.pdb
REMARK  228 active torsions:
REMARK  status: ('A' for Active; 'I' for Inactive)
REMARK    1  A    between atoms: _1  and  _3
REMARK    2  A    between atoms: _3  and  _4
REMARK    3  A    between atoms: _3  and  _6
REMARK    4  A    between atoms: _6  and  _7
REMARK    5  A    between atoms: _10  and  _12
REMARK    6  A    between atoms: _12  and  _13
REMARK    7  A    between atoms: _12  and  _15
REMARK    8  A    between atoms: _15  and  _16
REMARK    9  A    between atoms: _18  and  _20
REMARK   10  A    between atoms: _20  and  _21
REMARK   11  A    between atoms: _20  and  _23
REMARK   12  A    between atoms: _23  and  _24
REMARK   13  A    between atoms: _26  and  _28
REMARK   14  A    between atoms: _28  and  _29
REMARK   15  A    between atoms: _28  and  _31
REMARK   16  A    between atoms: _31  and  _32
REMARK   17  A    between atoms: _38  and  _40
REMARK   18  A    between atoms: _40  and  _41
REMARK   19  A    between atoms: _40  and  _43
REMARK   20  A    between atoms: _43  and  _44
REMARK   21  A    between atoms: _49  and  _50
REMARK   22  A    between atoms: _52  and  _54
REMARK   23  A    between atoms: _54  and  _55
REMARK   24  A    between atoms: _54  and  _57
REMARK   25  A    between atoms: _57  and  _58
REMARK   26  A    between atoms: _58  and  _59
REMARK   27  A    between atoms: _61  and  _63
REMARK   28  A    between atoms: _63  and  _64
REMARK   29  A    between atoms: _63  and  _66
REMARK   30  A    between atoms: _66  and  _67
REMARK   31  A    between atoms: _67  and  _68
REMARK   32  A    between atoms: _68  and  _69
REMARK   33  A    between atoms: _69  and  _70
REMARK   34  A    between atoms: _74  and  _76
REMARK   35  A    between atoms: _76  and  _77
REMARK   36  A    between atoms: _76  and  _79
REMARK   37  A    between atoms: _82  and  _84
REMARK   38  A    between atoms: _84  and  _85
REMARK   39  A    between atoms: _84  and  _87
REMARK   40  A    between atoms: _90  and  _92
REMARK   41  A    between atoms: _92  and  _93
REMARK   42  A    between atoms: _95  and  _97
REMARK   43  A    between atoms: _97  and  _98
REMARK   44  A    between atoms: _97  and  _100
REMARK   45  A    between atoms: _100  and  _101
REMARK   46  A    between atoms: _104  and  _106
REMARK   47  A    between atoms: _106  and  _107
REMARK   48  A    between atoms: _106  and  _109
REMARK   49  A    between atoms: _109  and  _110
REMARK   50  A    between atoms: _110  and  _111
REMARK   51  A    between atoms: _111  and  _112
REMARK   52  A    between atoms: _121  and  _123
REMARK   53  A    between atoms: _123  and  _124
REMARK   54  A    between atoms: _123  and  _126
REMARK   55  A    between atoms: _129  and  _131
REMARK   56  A    between atoms: _131  and  _132
REMARK   57  A    between atoms: _135  and  _137
REMARK   58  A    between atoms: _137  and  _138
REMARK   59  A    between atoms: _140  and  _142
REMARK   60  A    between atoms: _142  and  _143
REMARK   61  A    between atoms: _142  and  _145
REMARK   62  A    between atoms: _145  and  _146
REMARK   63  A    between atoms: _146  and  _147
REMARK   64  A    between atoms: _149  and  _151
REMARK   65  A    between atoms: _151  and  _152
REMARK   66  A    between atoms: _155  and  _157
REMARK   67  A    between atoms: _157  and  _158
REMARK   68  A    between atoms: _157  and  _160
REMARK   69  A    between atoms: _160  and  _161
REMARK   70  A    between atoms: _161  and  _162
REMARK   71  A    between atoms: _162  and  _163
REMARK   72  A    between atoms: _163  and  _164
REMARK   73  A    between atoms: _169  and  _170
REMARK   74  A    between atoms: _175  and  _177
REMARK   75  A    between atoms: _177  and  _178
REMARK   76  A    between atoms: _177  and  _180
REMARK   77  A    between atoms: _180  and  _181
REMARK   78  A    between atoms: _186  and  _188
REMARK   79  A    between atoms: _188  and  _189
REMARK   80  A    between atoms: _188  and  _191
REMARK   81  A    between atoms: _191  and  _192
REMARK   82  A    between atoms: _192  and  _193
REMARK   83  A    between atoms: _195  and  _197
REMARK   84  A    between atoms: _197  and  _198
REMARK   85  A    between atoms: _197  and  _200
REMARK   86  A    between atoms: _200  and  _201
REMARK   87  A    between atoms: _204  and  _206
REMARK   88  A    between atoms: _206  and  _207
REMARK   89  A    between atoms: _206  and  _209
REMARK   90  A    between atoms: _209  and  _210
REMARK   91  A    between atoms: _210  and  _211
REMARK   92  A    between atoms: _211  and  _212
REMARK   93  A    between atoms: _212  and  _213
REMARK   94  A    between atoms: _217  and  _219
REMARK   95  A    between atoms: _219  and  _220
REMARK   96  A    between atoms: _219  and  _222
REMARK   97  A    between atoms: _222  and  _223
REMARK   98  A    between atoms: _225  and  _227
REMARK   99  A    between atoms: _227  and  _228
REMARK  100  A    between atoms: _227  and  _230
REMARK  101  A    between atoms: _230  and  _231
REMARK  102  A    between atoms: _231  and  _232
REMARK  103  A    between atoms: _235  and  _237
REMARK  104  A    between atoms: _237  and  _238
REMARK  105  A    between atoms: _237  and  _240
REMARK  106  A    between atoms: _240  and  _241
REMARK  107  A    between atoms: _243  and  _245
REMARK  108  A    between atoms: _245  and  _246
REMARK  109  A    between atoms: _245  and  _248
REMARK  110  A    between atoms: _248  and  _249
REMARK  111  A    between atoms: _252  and  _254
REMARK  112  A    between atoms: _254  and  _255
REMARK  113  A    between atoms: _254  and  _257
REMARK  114  A    between atoms: _257  and  _258
REMARK  115  A    between atoms: _264  and  _266
REMARK  116  A    between atoms: _266  and  _267
REMARK  117  A    between atoms: _266  and  _269
REMARK  118  A    between atoms: _269  and  _270
REMARK  119  A    between atoms: _270  and  _271
REMARK  120  A    between atoms: _271  and  _272
REMARK  121  A    between atoms: _272  and  _273
REMARK  122  A    between atoms: _277  and  _279
REMARK  123  A    between atoms: _279  and  _280
REMARK  124  A    between atoms: _279  and  _282
REMARK  125  A    between atoms: _282  and  _283
REMARK  126  A    between atoms: _288  and  _290
REMARK  127  A    between atoms: _290  and  _291
REMARK  128  A    between atoms: _290  and  _293
REMARK  129  A    between atoms: _293  and  _294
REMARK  130  A    between atoms: _297  and  _299
REMARK  131  A    between atoms: _299  and  _300
REMARK  132  A    between atoms: _299  and  _302
REMARK  133  A    between atoms: _302  and  _303
REMARK  134  A    between atoms: _303  and  _304
REMARK  135  A    between atoms: _307  and  _309
REMARK  136  A    between atoms: _309  and  _310
REMARK  137  A    between atoms: _309  and  _312
REMARK  138  A    between atoms: _312  and  _313
REMARK  139  A    between atoms: _316  and  _318
REMARK  140  A    between atoms: _318  and  _319
REMARK  141  A    between atoms: _322  and  _324
REMARK  142  A    between atoms: _324  and  _325
REMARK  143  A    between atoms: _324  and  _327
REMARK  144  A    between atoms: _327  and  _328
REMARK  145  A    between atoms: _331  and  _333
REMARK  146  A    between atoms: _333  and  _334
REMARK  147  A    between atoms: _333  and  _336
REMARK  148  A    between atoms: _336  and  _337
REMARK  149  A    between atoms: _340  and  _342
REMARK  150  A    between atoms: _342  and  _343
REMARK  151  A    between atoms: _342  and  _345
REMARK  152  A    between atoms: _345  and  _346
REMARK  153  A    between atoms: _346  and  _347
REMARK  154  A    between atoms: _347  and  _348
REMARK  155  A    between atoms: _357  and  _359
REMARK  156  A    between atoms: _359  and  _360
REMARK  157  A    between atoms: _359  and  _362
REMARK  158  A    between atoms: _362  and  _363
REMARK  159  A    between atoms: _368  and  _370
REMARK  160  A    between atoms: _370  and  _371
REMARK  161  A    between atoms: _370  and  _373
REMARK  162  A    between atoms: _373  and  _374
REMARK  163  A    between atoms: _374  and  _375
REMARK  164  A    between atoms: _380  and  _382
REMARK  165  A    between atoms: _382  and  _383
REMARK  166  A    between atoms: _382  and  _385
REMARK  167  A    between atoms: _385  and  _386
REMARK  168  A    between atoms: _389  and  _391
REMARK  169  A    between atoms: _391  and  _392
REMARK  170  A    between atoms: _391  and  _394
REMARK  171  A    between atoms: _394  and  _395
REMARK  172  A    between atoms: _398  and  _400
REMARK  173  A    between atoms: _400  and  _401
REMARK  174  A    between atoms: _400  and  _403
REMARK  175  A    between atoms: _403  and  _404
REMARK  176  A    between atoms: _407  and  _409
REMARK  177  A    between atoms: _409  and  _410
REMARK  178  A    between atoms: _409  and  _412
REMARK  179  A    between atoms: _412  and  _413
REMARK  180  A    between atoms: _413  and  _414
REMARK  181  A    between atoms: _414  and  _415
REMARK  182  A    between atoms: _415  and  _416
REMARK  183  A    between atoms: _420  and  _422
REMARK  184  A    between atoms: _422  and  _423
REMARK  185  A    between atoms: _422  and  _425
REMARK  186  A    between atoms: _425  and  _426
REMARK  187  A    between atoms: _426  and  _427
REMARK  188  A    between atoms: _427  and  _428
REMARK  189  A    between atoms: _437  and  _439
REMARK  190  A    between atoms: _439  and  _440
REMARK  191  A    between atoms: _439  and  _442
REMARK  192  A    between atoms: _442  and  _443
REMARK  193  A    between atoms: _446  and  _448
REMARK  194  A    between atoms: _448  and  _449
REMARK  195  A    between atoms: _448  and  _451
REMARK  196  A    between atoms: _454  and  _456
REMARK  197  A    between atoms: _456  and  _457
REMARK  198  A    between atoms: _456  and  _459
REMARK  199  A    between atoms: _459  and  _460
REMARK  200  A    between atoms: _460  and  _461
REMARK  201  A    between atoms: _464  and  _466
REMARK  202  A    between atoms: _466  and  _467
REMARK  203  A    between atoms: _466  and  _469
REMARK  204  A    between atoms: _471  and  _473
REMARK  205  A    between atoms: _473  and  _474
REMARK  206  A    between atoms: _473  and  _476
REMARK  207  A    between atoms: _479  and  _481
REMARK  208  A    between atoms: _481  and  _482
REMARK  209  A    between atoms: _481  and  _484
REMARK  210  A    between atoms: _484  and  _485
REMARK  211  A    between atoms: _487  and  _489
REMARK  212  A    between atoms: _489  and  _490
REMARK  213  A    between atoms: _489  and  _492
REMARK  214  A    between atoms: _492  and  _493
REMARK  215  A    between atoms: _496  and  _498
REMARK  216  A    between atoms: _498  and  _499
REMARK  217  A    between atoms: _498  and  _501
REMARK  218  A    between atoms: _501  and  _502
REMARK  219  A    between atoms: _502  and  _503
REMARK  220  A    between atoms: _503  and  _504
REMARK  221  A    between atoms: _513  and  _515
REMARK  222  A    between atoms: _515  and  _516
REMARK  223  A    between atoms: _515  and  _518
REMARK  224  A    between atoms: _521  and  _523
REMARK  225  A    between atoms: _523  and  _524
REMARK  226  A    between atoms: _523  and  _526
REMARK  227  A    between atoms: _526  and  _527
REMARK  228  A    between atoms: _532  and  _533
REMARK                            x       y       z     vdW  Elec       q    Type
REMARK                         _______ _______ _______ _____ _____    ______ ____
ROOT
ATOM      1  O   HOH     1      29.563  47.649  13.775  0.00  0.00    +0.000 OA
ENDROOT
TORSDOF 0
REMARK  Name = ../refined-set-2016/2hnx/2hnx_pocket.pdb
REMARK  228 active torsions:
REMARK  status: ('A' for Active; 'I' for Inactive)
REMARK    1  A    between atoms: _1  and  _3
REMARK    2  A    between atoms: _3  and  _4
REMARK    3  A    between atoms: _3  and  _6
REMARK    4  A    between atoms: _6  and  _7
REMARK    5  A    between atoms: _10  and  _12
REMARK    6  A    between atoms: _12  and  _13
REMARK    7  A    between atoms: _12  and  _15
REMARK    8  A    between atoms: _15  and  _16
REMARK    9  A    between atoms: _18  and  _20
REMARK   10  A    between atoms: _20  and  _21
REMARK   11  A    between atoms: _20  and  _23
REMARK   12  A    between atoms: _23  and  _24
REMARK   13  A    between atoms: _26  and  _28
REMARK   14  A    between atoms: _28  and  _29
REMARK   15  A    between atoms: _28  and  _31
REMARK   16  A    between atoms: _31  and  _32
REMARK   17  A    between atoms: _38  and  _40
REMARK   18  A    between atoms: _40  and  _41
REMARK   19  A    between atoms: _40  and  _43
REMARK   20  A    between atoms: _43  and  _44
REMARK   21  A    between atoms: _49  and  _50
REMARK   22  A    between atoms: _52  and  _54
REMARK   23  A    between atoms: _54  and  _55
REMARK   24  A    between atoms: _54  and  _57
REMARK   25  A    between atoms: _57  and  _58
REMARK   26  A    between atoms: _58  and  _59
REMARK   27  A    between atoms: _61  and  _63
REMARK   28  A    between atoms: _63  and  _64
REMARK   29  A    between atoms: _63  and  _66
REMARK   30  A    between atoms: _66  and  _67
REMARK   31  A    between atoms: _67  and  _68
REMARK   32  A    between atoms: _68  and  _69
REMARK   33  A    between atoms: _69  and  _70
REMARK   34  A    between atoms: _74  and  _76
REMARK   35  A    between atoms: _76  and  _77
REMARK   36  A    between atoms: _76  and  _79
REMARK   37  A    between atoms: _82  and  _84
REMARK   38  A    between atoms: _84  and  _85
REMARK   39  A    between atoms: _84  and  _87
REMARK   40  A    between atoms: _90  and  _92
REMARK   41  A    between atoms: _92  and  _93
REMARK   42  A    between atoms: _95  and  _97
REMARK   43  A    between atoms: _97  and  _98
REMARK   44  A    between atoms: _97  and  _100
REMARK   45  A    between atoms: _100  and  _101
REMARK   46  A    between atoms: _104  and  _106
REMARK   47  A    between atoms: _106  and  _107
REMARK   48  A    between atoms: _106  and  _109
REMARK   49  A    between atoms: _109  and  _110
REMARK   50  A    between atoms: _110  and  _111
REMARK   51  A    between atoms: _111  and  _112
REMARK   52  A    between atoms: _121  and  _123
REMARK   53  A    between atoms: _123  and  _124
REMARK   54  A    between atoms: _123  and  _126
REMARK   55  A    between atoms: _129  and  _131
REMARK   56  A    between atoms: _131  and  _132
REMARK   57  A    between atoms: _135  and  _137
REMARK   58  A    between atoms: _137  and  _138
REMARK   59  A    between atoms: _140  and  _142
REMARK   60  A    between atoms: _142  and  _143
REMARK   61  A    between atoms: _142  and  _145
REMARK   62  A    between atoms: _145  and  _146
REMARK   63  A    between atoms: _146  and  _147
REMARK   64  A    between atoms: _149  and  _151
REMARK   65  A    between atoms: _151  and  _152
REMARK   66  A    between atoms: _155  and  _157
REMARK   67  A    between atoms: _157  and  _158
REMARK   68  A    between atoms: _157  and  _160
REMARK   69  A    between atoms: _160  and  _161
REMARK   70  A    between atoms: _161  and  _162
REMARK   71  A    between atoms: _162  and  _163
REMARK   72  A    between atoms: _163  and  _164
REMARK   73  A    between atoms: _169  and  _170
REMARK   74  A    between atoms: _175  and  _177
REMARK   75  A    between atoms: _177  and  _178
REMARK   76  A    between atoms: _177  and  _180
REMARK   77  A    between atoms: _180  and  _181
REMARK   78  A    between atoms: _186  and  _188
REMARK   79  A    between atoms: _188  and  _189
REMARK   80  A    between atoms: _188  and  _191
REMARK   81  A    between atoms: _191  and  _192
REMARK   82  A    between atoms: _192  and  _193
REMARK   83  A    between atoms: _195  and  _197
REMARK   84  A    between atoms: _197  and  _198
REMARK   85  A    between atoms: _197  and  _200
REMARK   86  A    between atoms: _200  and  _201
REMARK   87  A    between atoms: _204  and  _206
REMARK   88  A    between atoms: _206  and  _207
REMARK   89  A    between atoms: _206  and  _209
REMARK   90  A    between atoms: _209  and  _210
REMARK   91  A    between atoms: _210  and  _211
REMARK   92  A    between atoms: _211  and  _212
REMARK   93  A    between atoms: _212  and  _213
REMARK   94  A    between atoms: _217  and  _219
REMARK   95  A    between atoms: _219  and  _220
REMARK   96  A    between atoms: _219  and  _222
REMARK   97  A    between atoms: _222  and  _223
REMARK   98  A    between atoms: _225  and  _227
REMARK   99  A    between atoms: _227  and  _228
REMARK  100  A    between atoms: _227  and  _230
REMARK  101  A    between atoms: _230  and  _231
REMARK  102  A    between atoms: _231  and  _232
REMARK  103  A    between atoms: _235  and  _237
REMARK  104  A    between atoms: _237  and  _238
REMARK  105  A    between atoms: _237  and  _240
REMARK  106  A    between atoms: _240  and  _241
REMARK  107  A    between atoms: _243  and  _245
REMARK  108  A    between atoms: _245  and  _246
REMARK  109  A    between atoms: _245  and  _248
REMARK  110  A    between atoms: _248  and  _249
REMARK  111  A    between atoms: _252  and  _254
REMARK  112  A    between atoms: _254  and  _255
REMARK  113  A    between atoms: _254  and  _257
REMARK  114  A    between atoms: _257  and  _258
REMARK  115  A    between atoms: _264  and  _266
REMARK  116  A    between atoms: _266  and  _267
REMARK  117  A    between atoms: _266  and  _269
REMARK  118  A    between atoms: _269  and  _270
REMARK  119  A    between atoms: _270  and  _271
REMARK  120  A    between atoms: _271  and  _272
REMARK  121  A    between atoms: _272  and  _273
REMARK  122  A    between atoms: _277  and  _279
REMARK  123  A    between atoms: _279  and  _280
REMARK  124  A    between atoms: _279  and  _282
REMARK  125  A    between atoms: _282  and  _283
REMARK  126  A    between atoms: _288  and  _290
REMARK  127  A    between atoms: _290  and  _291
REMARK  128  A    between atoms: _290  and  _293
REMARK  129  A    between atoms: _293  and  _294
REMARK  130  A    between atoms: _297  and  _299
REMARK  131  A    between atoms: _299  and  _300
REMARK  132  A    between atoms: _299  and  _302
REMARK  133  A    between atoms: _302  and  _303
REMARK  134  A    between atoms: _303  and  _304
REMARK  135  A    between atoms: _307  and  _309
REMARK  136  A    between atoms: _309  and  _310
REMARK  137  A    between atoms: _309  and  _312
REMARK  138  A    between atoms: _312  and  _313
REMARK  139  A    between atoms: _316  and  _318
REMARK  140  A    between atoms: _318  and  _319
REMARK  141  A    between atoms: _322  and  _324
REMARK  142  A    between atoms: _324  and  _325
REMARK  143  A    between atoms: _324  and  _327
REMARK  144  A    between atoms: _327  and  _328
REMARK  145  A    between atoms: _331  and  _333
REMARK  146  A    between atoms: _333  and  _334
REMARK  147  A    between atoms: _333  and  _336
REMARK  148  A    between atoms: _336  and  _337
REMARK  149  A    between atoms: _340  and  _342
REMARK  150  A    between atoms: _342  and  _343
REMARK  151  A    between atoms: _342  and  _345
REMARK  152  A    between atoms: _345  and  _346
REMARK  153  A    between atoms: _346  and  _347
REMARK  154  A    between atoms: _347  and  _348
REMARK  155  A    between atoms: _357  and  _359
REMARK  156  A    between atoms: _359  and  _360
REMARK  157  A    between atoms: _359  and  _362
REMARK  158  A    between atoms: _362  and  _363
REMARK  159  A    between atoms: _368  and  _370
REMARK  160  A    between atoms: _370  and  _371
REMARK  161  A    between atoms: _370  and  _373
REMARK  162  A    between atoms: _373  and  _374
REMARK  163  A    between atoms: _374  and  _375
REMARK  164  A    between atoms: _380  and  _382
REMARK  165  A    between atoms: _382  and  _383
REMARK  166  A    between atoms: _382  and  _385
REMARK  167  A    between atoms: _385  and  _386
REMARK  168  A    between atoms: _389  and  _391
REMARK  169  A    between atoms: _391  and  _392
REMARK  170  A    between atoms: _391  and  _394
REMARK  171  A    between atoms: _394  and  _395
REMARK  172  A    between atoms: _398  and  _400
REMARK  173  A    between atoms: _400  and  _401
REMARK  174  A    between atoms: _400  and  _403
REMARK  175  A    between atoms: _403  and  _404
REMARK  176  A    between atoms: _407  and  _409
REMARK  177  A    between atoms: _409  and  _410
REMARK  178  A    between atoms: _409  and  _412
REMARK  179  A    between atoms: _412  and  _413
REMARK  180  A    between atoms: _413  and  _414
REMARK  181  A    between atoms: _414  and  _415
REMARK  182  A    between atoms: _415  and  _416
REMARK  183  A    between atoms: _420  and  _422
REMARK  184  A    between atoms: _422  and  _423
REMARK  185  A    between atoms: _422  and  _425
REMARK  186  A    between atoms: _425  and  _426
REMARK  187  A    between atoms: _426  and  _427
REMARK  188  A    between atoms: _427  and  _428
REMARK  189  A    between atoms: _437  and  _439
REMARK  190  A    between atoms: _439  and  _440
REMARK  191  A    between atoms: _439  and  _442
REMARK  192  A    between atoms: _442  and  _443
REMARK  193  A    between atoms: _446  and  _448
REMARK  194  A    between atoms: _448  and  _449
REMARK  195  A    between atoms: _448  and  _451
REMARK  196  A    between atoms: _454  and  _456
REMARK  197  A    between atoms: _456  and  _457
REMARK  198  A    between atoms: _456  and  _459
REMARK  199  A    between atoms: _459  and  _460
REMARK  200  A    between atoms: _460  and  _461
REMARK  201  A    between atoms: _464  and  _466
REMARK  202  A    between atoms: _466  and  _467
REMARK  203  A    between atoms: _466  and  _469
REMARK  204  A    between atoms: _471  and  _473
REMARK  205  A    between atoms: _473  and  _474
REMARK  206  A    between atoms: _473  and  _476
REMARK  207  A    between atoms: _479  and  _481
REMARK  208  A    between atoms: _481  and  _482
REMARK  209  A    between atoms: _481  and  _484
REMARK  210  A    between atoms: _484  and  _485
REMARK  211  A    between atoms: _487  and  _489
REMARK  212  A    between atoms: _489  and  _490
REMARK  213  A    between atoms: _489  and  _492
REMARK  214  A    between atoms: _492  and  _493
REMARK  215  A    between atoms: _496  and  _498
REMARK  216  A    between atoms: _498  and  _499
REMARK  217  A    between atoms: _498  and  _501
REMARK  218  A    between atoms: _501  and  _502
REMARK  219  A    between atoms: _502  and  _503
REMARK  220  A    between atoms: _503  and  _504
REMARK  221  A    between atoms: _513  and  _515
REMARK  222  A    between atoms: _515  and  _516
REMARK  223  A    between atoms: _515  and  _518
REMARK  224  A    between atoms: _521  and  _523
REMARK  225  A    between atoms: _523  and  _524
REMARK  226  A    between atoms: _523  and  _526
REMARK  227  A    between atoms: _526  and  _527
REMARK  228  A    between atoms: _532  and  _533
REMARK                            x       y       z     vdW  Elec       q    Type
REMARK                         _______ _______ _______ _____ _____    ______ ____
ROOT
ATOM      1  O   HOH     1      29.434  53.574  18.555  0.00  0.00    +0.000 OA
ENDROOT
TORSDOF 0
REMARK  Name = ../refined-set-2016/2hnx/2hnx_pocket.pdb
REMARK  228 active torsions:
REMARK  status: ('A' for Active; 'I' for Inactive)
REMARK    1  A    between atoms: _1  and  _3
REMARK    2  A    between atoms: _3  and  _4
REMARK    3  A    between atoms: _3  and  _6
REMARK    4  A    between atoms: _6  and  _7
REMARK    5  A    between atoms: _10  and  _12
REMARK    6  A    between atoms: _12  and  _13
REMARK    7  A    between atoms: _12  and  _15
REMARK    8  A    between atoms: _15  and  _16
REMARK    9  A    between atoms: _18  and  _20
REMARK   10  A    between atoms: _20  and  _21
REMARK   11  A    between atoms: _20  and  _23
REMARK   12  A    between atoms: _23  and  _24
REMARK   13  A    between atoms: _26  and  _28
REMARK   14  A    between atoms: _28  and  _29
REMARK   15  A    between atoms: _28  and  _31
REMARK   16  A    between atoms: _31  and  _32
REMARK   17  A    between atoms: _38  and  _40
REMARK   18  A    between atoms: _40  and  _41
REMARK   19  A    between atoms: _40  and  _43
REMARK   20  A    between atoms: _43  and  _44
REMARK   21  A    between atoms: _49  and  _50
REMARK   22  A    between atoms: _52  and  _54
REMARK   23  A    between atoms: _54  and  _55
REMARK   24  A    between atoms: _54  and  _57
REMARK   25  A    between atoms: _57  and  _58
REMARK   26  A    between atoms: _58  and  _59
REMARK   27  A    between atoms: _61  and  _63
REMARK   28  A    between atoms: _63  and  _64
REMARK   29  A    between atoms: _63  and  _66
REMARK   30  A    between atoms: _66  and  _67
REMARK   31  A    between atoms: _67  and  _68
REMARK   32  A    between atoms: _68  and  _69
REMARK   33  A    between atoms: _69  and  _70
REMARK   34  A    between atoms: _74  and  _76
REMARK   35  A    between atoms: _76  and  _77
REMARK   36  A    between atoms: _76  and  _79
REMARK   37  A    between atoms: _82  and  _84
REMARK   38  A    between atoms: _84  and  _85
REMARK   39  A    between atoms: _84  and  _87
REMARK   40  A    between atoms: _90  and  _92
REMARK   41  A    between atoms: _92  and  _93
REMARK   42  A    between atoms: _95  and  _97
REMARK   43  A    between atoms: _97  and  _98
REMARK   44  A    between atoms: _97  and  _100
REMARK   45  A    between atoms: _100  and  _101
REMARK   46  A    between atoms: _104  and  _106
REMARK   47  A    between atoms: _106  and  _107
REMARK   48  A    between atoms: _106  and  _109
REMARK   49  A    between atoms: _109  and  _110
REMARK   50  A    between atoms: _110  and  _111
REMARK   51  A    between atoms: _111  and  _112
REMARK   52  A    between atoms: _121  and  _123
REMARK   53  A    between atoms: _123  and  _124
REMARK   54  A    between atoms: _123  and  _126
REMARK   55  A    between atoms: _129  and  _131
REMARK   56  A    between atoms: _131  and  _132
REMARK   57  A    between atoms: _135  and  _137
REMARK   58  A    between atoms: _137  and  _138
REMARK   59  A    between atoms: _140  and  _142
REMARK   60  A    between atoms: _142  and  _143
REMARK   61  A    between atoms: _142  and  _145
REMARK   62  A    between atoms: _145  and  _146
REMARK   63  A    between atoms: _146  and  _147
REMARK   64  A    between atoms: _149  and  _151
REMARK   65  A    between atoms: _151  and  _152
REMARK   66  A    between atoms: _155  and  _157
REMARK   67  A    between atoms: _157  and  _158
REMARK   68  A    between atoms: _157  and  _160
REMARK   69  A    between atoms: _160  and  _161
REMARK   70  A    between atoms: _161  and  _162
REMARK   71  A    between atoms: _162  and  _163
REMARK   72  A    between atoms: _163  and  _164
REMARK   73  A    between atoms: _169  and  _170
REMARK   74  A    between atoms: _175  and  _177
REMARK   75  A    between atoms: _177  and  _178
REMARK   76  A    between atoms: _177  and  _180
REMARK   77  A    between atoms: _180  and  _181
REMARK   78  A    between atoms: _186  and  _188
REMARK   79  A    between atoms: _188  and  _189
REMARK   80  A    between atoms: _188  and  _191
REMARK   81  A    between atoms: _191  and  _192
REMARK   82  A    between atoms: _192  and  _193
REMARK   83  A    between atoms: _195  and  _197
REMARK   84  A    between atoms: _197  and  _198
REMARK   85  A    between atoms: _197  and  _200
REMARK   86  A    between atoms: _200  and  _201
REMARK   87  A    between atoms: _204  and  _206
REMARK   88  A    between atoms: _206  and  _207
REMARK   89  A    between atoms: _206  and  _209
REMARK   90  A    between atoms: _209  and  _210
REMARK   91  A    between atoms: _210  and  _211
REMARK   92  A    between atoms: _211  and  _212
REMARK   93  A    between atoms: _212  and  _213
REMARK   94  A    between atoms: _217  and  _219
REMARK   95  A    between atoms: _219  and  _220
REMARK   96  A    between atoms: _219  and  _222
REMARK   97  A    between atoms: _222  and  _223
REMARK   98  A    between atoms: _225  and  _227
REMARK   99  A    between atoms: _227  and  _228
REMARK  100  A    between atoms: _227  and  _230
REMARK  101  A    between atoms: _230  and  _231
REMARK  102  A    between atoms: _231  and  _232
REMARK  103  A    between atoms: _235  and  _237
REMARK  104  A    between atoms: _237  and  _238
REMARK  105  A    between atoms: _237  and  _240
REMARK  106  A    between atoms: _240  and  _241
REMARK  107  A    between atoms: _243  and  _245
REMARK  108  A    between atoms: _245  and  _246
REMARK  109  A    between atoms: _245  and  _248
REMARK  110  A    between atoms: _248  and  _249
REMARK  111  A    between atoms: _252  and  _254
REMARK  112  A    between atoms: _254  and  _255
REMARK  113  A    between atoms: _254  and  _257
REMARK  114  A    between atoms: _257  and  _258
REMARK  115  A    between atoms: _264  and  _266
REMARK  116  A    between atoms: _266  and  _267
REMARK  117  A    between atoms: _266  and  _269
REMARK  118  A    between atoms: _269  and  _270
REMARK  119  A    between atoms: _270  and  _271
REMARK  120  A    between atoms: _271  and  _272
REMARK  121  A    between atoms: _272  and  _273
REMARK  122  A    between atoms: _277  and  _279
REMARK  123  A    between atoms: _279  and  _280
REMARK  124  A    between atoms: _279  and  _282
REMARK  125  A    between atoms: _282  and  _283
REMARK  126  A    between atoms: _288  and  _290
REMARK  127  A    between atoms: _290  and  _291
REMARK  128  A    between atoms: _290  and  _293
REMARK  129  A    between atoms: _293  and  _294
REMARK  130  A    between atoms: _297  and  _299
REMARK  131  A    between atoms: _299  and  _300
REMARK  132  A    between atoms: _299  and  _302
REMARK  133  A    between atoms: _302  and  _303
REMARK  134  A    between atoms: _303  and  _304
REMARK  135  A    between atoms: _307  and  _309
REMARK  136  A    between atoms: _309  and  _310
REMARK  137  A    between atoms: _309  and  _312
REMARK  138  A    between atoms: _312  and  _313
REMARK  139  A    between atoms: _316  and  _318
REMARK  140  A    between atoms: _318  and  _319
REMARK  141  A    between atoms: _322  and  _324
REMARK  142  A    between atoms: _324  and  _325
REMARK  143  A    between atoms: _324  and  _327
REMARK  144  A    between atoms: _327  and  _328
REMARK  145  A    between atoms: _331  and  _333
REMARK  146  A    between atoms: _333  and  _334
REMARK  147  A    between atoms: _333  and  _336
REMARK  148  A    between atoms: _336  and  _337
REMARK  149  A    between atoms: _340  and  _342
REMARK  150  A    between atoms: _342  and  _343
REMARK  151  A    between atoms: _342  and  _345
REMARK  152  A    between atoms: _345  and  _346
REMARK  153  A    between atoms: _346  and  _347
REMARK  154  A    between atoms: _347  and  _348
REMARK  155  A    between atoms: _357  and  _359
REMARK  156  A    between atoms: _359  and  _360
REMARK  157  A    between atoms: _359  and  _362
REMARK  158  A    between atoms: _362  and  _363
REMARK  159  A    between atoms: _368  and  _370
REMARK  160  A    between atoms: _370  and  _371
REMARK  161  A    between atoms: _370  and  _373
REMARK  162  A    between atoms: _373  and  _374
REMARK  163  A    between atoms: _374  and  _375
REMARK  164  A    between atoms: _380  and  _382
REMARK  165  A    between atoms: _382  and  _383
REMARK  166  A    between atoms: _382  and  _385
REMARK  167  A    between atoms: _385  and  _386
REMARK  168  A    between atoms: _389  and  _391
REMARK  169  A    between atoms: _391  and  _392
REMARK  170  A    between atoms: _391  and  _394
REMARK  171  A    between atoms: _394  and  _395
REMARK  172  A    between atoms: _398  and  _400
REMARK  173  A    between atoms: _400  and  _401
REMARK  174  A    between atoms: _400  and  _403
REMARK  175  A    between atoms: _403  and  _404
REMARK  176  A    between atoms: _407  and  _409
REMARK  177  A    between atoms: _409  and  _410
REMARK  178  A    between atoms: _409  and  _412
REMARK  179  A    between atoms: _412  and  _413
REMARK  180  A    between atoms: _413  and  _414
REMARK  181  A    between atoms: _414  and  _415
REMARK  182  A    between atoms: _415  and  _416
REMARK  183  A    between atoms: _420  and  _422
REMARK  184  A    between atoms: _422  and  _423
REMARK  185  A    between atoms: _422  and  _425
REMARK  186  A    between atoms: _425  and  _426
REMARK  187  A    between atoms: _426  and  _427
REMARK  188  A    between atoms: _427  and  _428
REMARK  189  A    between atoms: _437  and  _439
REMARK  190  A    between atoms: _439  and  _440
REMARK  191  A    between atoms: _439  and  _442
REMARK  192  A    between atoms: _442  and  _443
REMARK  193  A    between atoms: _446  and  _448
REMARK  194  A    between atoms: _448  and  _449
REMARK  195  A    between atoms: _448  and  _451
REMARK  196  A    between atoms: _454  and  _456
REMARK  197  A    between atoms: _456  and  _457
REMARK  198  A    between atoms: _456  and  _459
REMARK  199  A    between atoms: _459  and  _460
REMARK  200  A    between atoms: _460  and  _461
REMARK  201  A    between atoms: _464  and  _466
REMARK  202  A    between atoms: _466  and  _467
REMARK  203  A    between atoms: _466  and  _469
REMARK  204  A    between atoms: _471  and  _473
REMARK  205  A    between atoms: _473  and  _474
REMARK  206  A    between atoms: _473  and  _476
REMARK  207  A    between atoms: _479  and  _481
REMARK  208  A    between atoms: _481  and  _482
REMARK  209  A    between atoms: _481  and  _484
REMARK  210  A    between atoms: _484  and  _485
REMARK  211  A    between atoms: _487  and  _489
REMARK  212  A    between atoms: _489  and  _490
REMARK  213  A    between atoms: _489  and  _492
REMARK  214  A    between atoms: _492  and  _493
REMARK  215  A    between atoms: _496  and  _498
REMARK  216  A    between atoms: _498  and  _499
REMARK  217  A    between atoms: _498  and  _501
REMARK  218  A    between atoms: _501  and  _502
REMARK  219  A    between atoms: _502  and  _503
REMARK  220  A    between atoms: _503  and  _504
REMARK  221  A    between atoms: _513  and  _515
REMARK  222  A    between atoms: _515  and  _516
REMARK  223  A    between atoms: _515  and  _518
REMARK  224  A    between atoms: _521  and  _523
REMARK  225  A    between atoms: _523  and  _524
REMARK  226  A    between atoms: _523  and  _526
REMARK  227  A    between atoms: _526  and  _527
REMARK  228  A    between atoms: _532  and  _533
REMARK                            x       y       z     vdW  Elec       q    Type
REMARK                         _______ _______ _______ _____ _____    ______ ____
ROOT
ATOM      1  O   HOH     1      23.421  43.713  21.639  0.00  0.00    +0.000 OA
ENDROOT
TORSDOF 0
REMARK  Name = ../refined-set-2016/2hnx/2hnx_pocket.pdb
REMARK  228 active torsions:
REMARK  status: ('A' for Active; 'I' for Inactive)
REMARK    1  A    between atoms: _1  and  _3
REMARK    2  A    between atoms: _3  and  _4
REMARK    3  A    between atoms: _3  and  _6
REMARK    4  A    between atoms: _6  and  _7
REMARK    5  A    between atoms: _10  and  _12
REMARK    6  A    between atoms: _12  and  _13
REMARK    7  A    between atoms: _12  and  _15
REMARK    8  A    between atoms: _15  and  _16
REMARK    9  A    between atoms: _18  and  _20
REMARK   10  A    between atoms: _20  and  _21
REMARK   11  A    between atoms: _20  and  _23
REMARK   12  A    between atoms: _23  and  _24
REMARK   13  A    between atoms: _26  and  _28
REMARK   14  A    between atoms: _28  and  _29
REMARK   15  A    between atoms: _28  and  _31
REMARK   16  A    between atoms: _31  and  _32
REMARK   17  A    between atoms: _38  and  _40
REMARK   18  A    between atoms: _40  and  _41
REMARK   19  A    between atoms: _40  and  _43
REMARK   20  A    between atoms: _43  and  _44
REMARK   21  A    between atoms: _49  and  _50
REMARK   22  A    between atoms: _52  and  _54
REMARK   23  A    between atoms: _54  and  _55
REMARK   24  A    between atoms: _54  and  _57
REMARK   25  A    between atoms: _57  and  _58
REMARK   26  A    between atoms: _58  and  _59
REMARK   27  A    between atoms: _61  and  _63
REMARK   28  A    between atoms: _63  and  _64
REMARK   29  A    between atoms: _63  and  _66
REMARK   30  A    between atoms: _66  and  _67
REMARK   31  A    between atoms: _67  and  _68
REMARK   32  A    between atoms: _68  and  _69
REMARK   33  A    between atoms: _69  and  _70
REMARK   34  A    between atoms: _74  and  _76
REMARK   35  A    between atoms: _76  and  _77
REMARK   36  A    between atoms: _76  and  _79
REMARK   37  A    between atoms: _82  and  _84
REMARK   38  A    between atoms: _84  and  _85
REMARK   39  A    between atoms: _84  and  _87
REMARK   40  A    between atoms: _90  and  _92
REMARK   41  A    between atoms: _92  and  _93
REMARK   42  A    between atoms: _95  and  _97
REMARK   43  A    between atoms: _97  and  _98
REMARK   44  A    between atoms: _97  and  _100
REMARK   45  A    between atoms: _100  and  _101
REMARK   46  A    between atoms: _104  and  _106
REMARK   47  A    between atoms: _106  and  _107
REMARK   48  A    between atoms: _106  and  _109
REMARK   49  A    between atoms: _109  and  _110
REMARK   50  A    between atoms: _110  and  _111
REMARK   51  A    between atoms: _111  and  _112
REMARK   52  A    between atoms: _121  and  _123
REMARK   53  A    between atoms: _123  and  _124
REMARK   54  A    between atoms: _123  and  _126
REMARK   55  A    between atoms: _129  and  _131
REMARK   56  A    between atoms: _131  and  _132
REMARK   57  A    between atoms: _135  and  _137
REMARK   58  A    between atoms: _137  and  _138
REMARK   59  A    between atoms: _140  and  _142
REMARK   60  A    between atoms: _142  and  _143
REMARK   61  A    between atoms: _142  and  _145
REMARK   62  A    between atoms: _145  and  _146
REMARK   63  A    between atoms: _146  and  _147
REMARK   64  A    between atoms: _149  and  _151
REMARK   65  A    between atoms: _151  and  _152
REMARK   66  A    between atoms: _155  and  _157
REMARK   67  A    between atoms: _157  and  _158
REMARK   68  A    between atoms: _157  and  _160
REMARK   69  A    between atoms: _160  and  _161
REMARK   70  A    between atoms: _161  and  _162
REMARK   71  A    between atoms: _162  and  _163
REMARK   72  A    between atoms: _163  and  _164
REMARK   73  A    between atoms: _169  and  _170
REMARK   74  A    between atoms: _175  and  _177
REMARK   75  A    between atoms: _177  and  _178
REMARK   76  A    between atoms: _177  and  _180
REMARK   77  A    between atoms: _180  and  _181
REMARK   78  A    between atoms: _186  and  _188
REMARK   79  A    between atoms: _188  and  _189
REMARK   80  A    between atoms: _188  and  _191
REMARK   81  A    between atoms: _191  and  _192
REMARK   82  A    between atoms: _192  and  _193
REMARK   83  A    between atoms: _195  and  _197
REMARK   84  A    between atoms: _197  and  _198
REMARK   85  A    between atoms: _197  and  _200
REMARK   86  A    between atoms: _200  and  _201
REMARK   87  A    between atoms: _204  and  _206
REMARK   88  A    between atoms: _206  and  _207
REMARK   89  A    between atoms: _206  and  _209
REMARK   90  A    between atoms: _209  and  _210
REMARK   91  A    between atoms: _210  and  _211
REMARK   92  A    between atoms: _211  and  _212
REMARK   93  A    between atoms: _212  and  _213
REMARK   94  A    between atoms: _217  and  _219
REMARK   95  A    between atoms: _219  and  _220
REMARK   96  A    between atoms: _219  and  _222
REMARK   97  A    between atoms: _222  and  _223
REMARK   98  A    between atoms: _225  and  _227
REMARK   99  A    between atoms: _227  and  _228
REMARK  100  A    between atoms: _227  and  _230
REMARK  101  A    between atoms: _230  and  _231
REMARK  102  A    between atoms: _231  and  _232
REMARK  103  A    between atoms: _235  and  _237
REMARK  104  A    between atoms: _237  and  _238
REMARK  105  A    between atoms: _237  and  _240
REMARK  106  A    between atoms: _240  and  _241
REMARK  107  A    between atoms: _243  and  _245
REMARK  108  A    between atoms: _245  and  _246
REMARK  109  A    between atoms: _245  and  _248
REMARK  110  A    between atoms: _248  and  _249
REMARK  111  A    between atoms: _252  and  _254
REMARK  112  A    between atoms: _254  and  _255
REMARK  113  A    between atoms: _254  and  _257
REMARK  114  A    between atoms: _257  and  _258
REMARK  115  A    between atoms: _264  and  _266
REMARK  116  A    between atoms: _266  and  _267
REMARK  117  A    between atoms: _266  and  _269
REMARK  118  A    between atoms: _269  and  _270
REMARK  119  A    between atoms: _270  and  _271
REMARK  120  A    between atoms: _271  and  _272
REMARK  121  A    between atoms: _272  and  _273
REMARK  122  A    between atoms: _277  and  _279
REMARK  123  A    between atoms: _279  and  _280
REMARK  124  A    between atoms: _279  and  _282
REMARK  125  A    between atoms: _282  and  _283
REMARK  126  A    between atoms: _288  and  _290
REMARK  127  A    between atoms: _290  and  _291
REMARK  128  A    between atoms: _290  and  _293
REMARK  129  A    between atoms: _293  and  _294
REMARK  130  A    between atoms: _297  and  _299
REMARK  131  A    between atoms: _299  and  _300
REMARK  132  A    between atoms: _299  and  _302
REMARK  133  A    between atoms: _302  and  _303
REMARK  134  A    between atoms: _303  and  _304
REMARK  135  A    between atoms: _307  and  _309
REMARK  136  A    between atoms: _309  and  _310
REMARK  137  A    between atoms: _309  and  _312
REMARK  138  A    between atoms: _312  and  _313
REMARK  139  A    between atoms: _316  and  _318
REMARK  140  A    between atoms: _318  and  _319
REMARK  141  A    between atoms: _322  and  _324
REMARK  142  A    between atoms: _324  and  _325
REMARK  143  A    between atoms: _324  and  _327
REMARK  144  A    between atoms: _327  and  _328
REMARK  145  A    between atoms: _331  and  _333
REMARK  146  A    between atoms: _333  and  _334
REMARK  147  A    between atoms: _333  and  _336
REMARK  148  A    between atoms: _336  and  _337
REMARK  149  A    between atoms: _340  and  _342
REMARK  150  A    between atoms: _342  and  _343
REMARK  151  A    between atoms: _342  and  _345
REMARK  152  A    between atoms: _345  and  _346
REMARK  153  A    between atoms: _346  and  _347
REMARK  154  A    between atoms: _347  and  _348
REMARK  155  A    between atoms: _357  and  _359
REMARK  156  A    between atoms: _359  and  _360
REMARK  157  A    between atoms: _359  and  _362
REMARK  158  A    between atoms: _362  and  _363
REMARK  159  A    between atoms: _368  and  _370
REMARK  160  A    between atoms: _370  and  _371
REMARK  161  A    between atoms: _370  and  _373
REMARK  162  A    between atoms: _373  and  _374
REMARK  163  A    between atoms: _374  and  _375
REMARK  164  A    between atoms: _380  and  _382
REMARK  165  A    between atoms: _382  and  _383
REMARK  166  A    between atoms: _382  and  _385
REMARK  167  A    between atoms: _385  and  _386
REMARK  168  A    between atoms: _389  and  _391
REMARK  169  A    between atoms: _391  and  _392
REMARK  170  A    between atoms: _391  and  _394
REMARK  171  A    between atoms: _394  and  _395
REMARK  172  A    between atoms: _398  and  _400
REMARK  173  A    between atoms: _400  and  _401
REMARK  174  A    between atoms: _400  and  _403
REMARK  175  A    between atoms: _403  and  _404
REMARK  176  A    between atoms: _407  and  _409
REMARK  177  A    between atoms: _409  and  _410
REMARK  178  A    between atoms: _409  and  _412
REMARK  179  A    between atoms: _412  and  _413
REMARK  180  A    between atoms: _413  and  _414
REMARK  181  A    between atoms: _414  and  _415
REMARK  182  A    between atoms: _415  and  _416
REMARK  183  A    between atoms: _420  and  _422
REMARK  184  A    between atoms: _422  and  _423
REMARK  185  A    between atoms: _422  and  _425
REMARK  186  A    between atoms: _425  and  _426
REMARK  187  A    between atoms: _426  and  _427
REMARK  188  A    between atoms: _427  and  _428
REMARK  189  A    between atoms: _437  and  _439
REMARK  190  A    between atoms: _439  and  _440
REMARK  191  A    between atoms: _439  and  _442
REMARK  192  A    between atoms: _442  and  _443
REMARK  193  A    between atoms: _446  and  _448
REMARK  194  A    between atoms: _448  and  _449
REMARK  195  A    between atoms: _448  and  _451
REMARK  196  A    between atoms: _454  and  _456
REMARK  197  A    between atoms: _456  and  _457
REMARK  198  A    between atoms: _456  and  _459
REMARK  199  A    between atoms: _459  and  _460
REMARK  200  A    between atoms: _460  and  _461
REMARK  201  A    between atoms: _464  and  _466
REMARK  202  A    between atoms: _466  and  _467
REMARK  203  A    between atoms: _466  and  _469
REMARK  204  A    between atoms: _471  and  _473
REMARK  205  A    between atoms: _473  and  _474
REMARK  206  A    between atoms: _473  and  _476
REMARK  207  A    between atoms: _479  and  _481
REMARK  208  A    between atoms: _481  and  _482
REMARK  209  A    between atoms: _481  and  _484
REMARK  210  A    between atoms: _484  and  _485
REMARK  211  A    between atoms: _487  and  _489
REMARK  212  A    between atoms: _489  and  _490
REMARK  213  A    between atoms: _489  and  _492
REMARK  214  A    between atoms: _492  and  _493
REMARK  215  A    between atoms: _496  and  _498
REMARK  216  A    between atoms: _498  and  _499
REMARK  217  A    between atoms: _498  and  _501
REMARK  218  A    between atoms: _501  and  _502
REMARK  219  A    between atoms: _502  and  _503
REMARK  220  A    between atoms: _503  and  _504
REMARK  221  A    between atoms: _513  and  _515
REMARK  222  A    between atoms: _515  and  _516
REMARK  223  A    between atoms: _515  and  _518
REMARK  224  A    between atoms: _521  and  _523
REMARK  225  A    between atoms: _523  and  _524
REMARK  226  A    between atoms: _523  and  _526
REMARK  227  A    between atoms: _526  and  _527
REMARK  228  A    between atoms: _532  and  _533
REMARK                            x       y       z     vdW  Elec       q    Type
REMARK                         _______ _______ _______ _____ _____    ______ ____
ROOT
ATOM      1  O   HOH     1      27.277  56.119  19.198  0.00  0.00    +0.000 OA
ENDROOT
TORSDOF 0
REMARK  Name = ../refined-set-2016/2hnx/2hnx_pocket.pdb
REMARK  228 active torsions:
REMARK  status: ('A' for Active; 'I' for Inactive)
REMARK    1  A    between atoms: _1  and  _3
REMARK    2  A    between atoms: _3  and  _4
REMARK    3  A    between atoms: _3  and  _6
REMARK    4  A    between atoms: _6  and  _7
REMARK    5  A    between atoms: _10  and  _12
REMARK    6  A    between atoms: _12  and  _13
REMARK    7  A    between atoms: _12  and  _15
REMARK    8  A    between atoms: _15  and  _16
REMARK    9  A    between atoms: _18  and  _20
REMARK   10  A    between atoms: _20  and  _21
REMARK   11  A    between atoms: _20  and  _23
REMARK   12  A    between atoms: _23  and  _24
REMARK   13  A    between atoms: _26  and  _28
REMARK   14  A    between atoms: _28  and  _29
REMARK   15  A    between atoms: _28  and  _31
REMARK   16  A    between atoms: _31  and  _32
REMARK   17  A    between atoms: _38  and  _40
REMARK   18  A    between atoms: _40  and  _41
REMARK   19  A    between atoms: _40  and  _43
REMARK   20  A    between atoms: _43  and  _44
REMARK   21  A    between atoms: _49  and  _50
REMARK   22  A    between atoms: _52  and  _54
REMARK   23  A    between atoms: _54  and  _55
REMARK   24  A    between atoms: _54  and  _57
REMARK   25  A    between atoms: _57  and  _58
REMARK   26  A    between atoms: _58  and  _59
REMARK   27  A    between atoms: _61  and  _63
REMARK   28  A    between atoms: _63  and  _64
REMARK   29  A    between atoms: _63  and  _66
REMARK   30  A    between atoms: _66  and  _67
REMARK   31  A    between atoms: _67  and  _68
REMARK   32  A    between atoms: _68  and  _69
REMARK   33  A    between atoms: _69  and  _70
REMARK   34  A    between atoms: _74  and  _76
REMARK   35  A    between atoms: _76  and  _77
REMARK   36  A    between atoms: _76  and  _79
REMARK   37  A    between atoms: _82  and  _84
REMARK   38  A    between atoms: _84  and  _85
REMARK   39  A    between atoms: _84  and  _87
REMARK   40  A    between atoms: _90  and  _92
REMARK   41  A    between atoms: _92  and  _93
REMARK   42  A    between atoms: _95  and  _97
REMARK   43  A    between atoms: _97  and  _98
REMARK   44  A    between atoms: _97  and  _100
REMARK   45  A    between atoms: _100  and  _101
REMARK   46  A    between atoms: _104  and  _106
REMARK   47  A    between atoms: _106  and  _107
REMARK   48  A    between atoms: _106  and  _109
REMARK   49  A    between atoms: _109  and  _110
REMARK   50  A    between atoms: _110  and  _111
REMARK   51  A    between atoms: _111  and  _112
REMARK   52  A    between atoms: _121  and  _123
REMARK   53  A    between atoms: _123  and  _124
REMARK   54  A    between atoms: _123  and  _126
REMARK   55  A    between atoms: _129  and  _131
REMARK   56  A    between atoms: _131  and  _132
REMARK   57  A    between atoms: _135  and  _137
REMARK   58  A    between atoms: _137  and  _138
REMARK   59  A    between atoms: _140  and  _142
REMARK   60  A    between atoms: _142  and  _143
REMARK   61  A    between atoms: _142  and  _145
REMARK   62  A    between atoms: _145  and  _146
REMARK   63  A    between atoms: _146  and  _147
REMARK   64  A    between atoms: _149  and  _151
REMARK   65  A    between atoms: _151  and  _152
REMARK   66  A    between atoms: _155  and  _157
REMARK   67  A    between atoms: _157  and  _158
REMARK   68  A    between atoms: _157  and  _160
REMARK   69  A    between atoms: _160  and  _161
REMARK   70  A    between atoms: _161  and  _162
REMARK   71  A    between atoms: _162  and  _163
REMARK   72  A    between atoms: _163  and  _164
REMARK   73  A    between atoms: _169  and  _170
REMARK   74  A    between atoms: _175  and  _177
REMARK   75  A    between atoms: _177  and  _178
REMARK   76  A    between atoms: _177  and  _180
REMARK   77  A    between atoms: _180  and  _181
REMARK   78  A    between atoms: _186  and  _188
REMARK   79  A    between atoms: _188  and  _189
REMARK   80  A    between atoms: _188  and  _191
REMARK   81  A    between atoms: _191  and  _192
REMARK   82  A    between atoms: _192  and  _193
REMARK   83  A    between atoms: _195  and  _197
REMARK   84  A    between atoms: _197  and  _198
REMARK   85  A    between atoms: _197  and  _200
REMARK   86  A    between atoms: _200  and  _201
REMARK   87  A    between atoms: _204  and  _206
REMARK   88  A    between atoms: _206  and  _207
REMARK   89  A    between atoms: _206  and  _209
REMARK   90  A    between atoms: _209  and  _210
REMARK   91  A    between atoms: _210  and  _211
REMARK   92  A    between atoms: _211  and  _212
REMARK   93  A    between atoms: _212  and  _213
REMARK   94  A    between atoms: _217  and  _219
REMARK   95  A    between atoms: _219  and  _220
REMARK   96  A    between atoms: _219  and  _222
REMARK   97  A    between atoms: _222  and  _223
REMARK   98  A    between atoms: _225  and  _227
REMARK   99  A    between atoms: _227  and  _228
REMARK  100  A    between atoms: _227  and  _230
REMARK  101  A    between atoms: _230  and  _231
REMARK  102  A    between atoms: _231  and  _232
REMARK  103  A    between atoms: _235  and  _237
REMARK  104  A    between atoms: _237  and  _238
REMARK  105  A    between atoms: _237  and  _240
REMARK  106  A    between atoms: _240  and  _241
REMARK  107  A    between atoms: _243  and  _245
REMARK  108  A    between atoms: _245  and  _246
REMARK  109  A    between atoms: _245  and  _248
REMARK  110  A    between atoms: _248  and  _249
REMARK  111  A    between atoms: _252  and  _254
REMARK  112  A    between atoms: _254  and  _255
REMARK  113  A    between atoms: _254  and  _257
REMARK  114  A    between atoms: _257  and  _258
REMARK  115  A    between atoms: _264  and  _266
REMARK  116  A    between atoms: _266  and  _267
REMARK  117  A    between atoms: _266  and  _269
REMARK  118  A    between atoms: _269  and  _270
REMARK  119  A    between atoms: _270  and  _271
REMARK  120  A    between atoms: _271  and  _272
REMARK  121  A    between atoms: _272  and  _273
REMARK  122  A    between atoms: _277  and  _279
REMARK  123  A    between atoms: _279  and  _280
REMARK  124  A    between atoms: _279  and  _282
REMARK  125  A    between atoms: _282  and  _283
REMARK  126  A    between atoms: _288  and  _290
REMARK  127  A    between atoms: _290  and  _291
REMARK  128  A    between atoms: _290  and  _293
REMARK  129  A    between atoms: _293  and  _294
REMARK  130  A    between atoms: _297  and  _299
REMARK  131  A    between atoms: _299  and  _300
REMARK  132  A    between atoms: _299  and  _302
REMARK  133  A    between atoms: _302  and  _303
REMARK  134  A    between atoms: _303  and  _304
REMARK  135  A    between atoms: _307  and  _309
REMARK  136  A    between atoms: _309  and  _310
REMARK  137  A    between atoms: _309  and  _312
REMARK  138  A    between atoms: _312  and  _313
REMARK  139  A    between atoms: _316  and  _318
REMARK  140  A    between atoms: _318  and  _319
REMARK  141  A    between atoms: _322  and  _324
REMARK  142  A    between atoms: _324  and  _325
REMARK  143  A    between atoms: _324  and  _327
REMARK  144  A    between atoms: _327  and  _328
REMARK  145  A    between atoms: _331  and  _333
REMARK  146  A    between atoms: _333  and  _334
REMARK  147  A    between atoms: _333  and  _336
REMARK  148  A    between atoms: _336  and  _337
REMARK  149  A    between atoms: _340  and  _342
REMARK  150  A    between atoms: _342  and  _343
REMARK  151  A    between atoms: _342  and  _345
REMARK  152  A    between atoms: _345  and  _346
REMARK  153  A    between atoms: _346  and  _347
REMARK  154  A    between atoms: _347  and  _348
REMARK  155  A    between atoms: _357  and  _359
REMARK  156  A    between atoms: _359  and  _360
REMARK  157  A    between atoms: _359  and  _362
REMARK  158  A    between atoms: _362  and  _363
REMARK  159  A    between atoms: _368  and  _370
REMARK  160  A    between atoms: _370  and  _371
REMARK  161  A    between atoms: _370  and  _373
REMARK  162  A    between atoms: _373  and  _374
REMARK  163  A    between atoms: _374  and  _375
REMARK  164  A    between atoms: _380  and  _382
REMARK  165  A    between atoms: _382  and  _383
REMARK  166  A    between atoms: _382  and  _385
REMARK  167  A    between atoms: _385  and  _386
REMARK  168  A    between atoms: _389  and  _391
REMARK  169  A    between atoms: _391  and  _392
REMARK  170  A    between atoms: _391  and  _394
REMARK  171  A    between atoms: _394  and  _395
REMARK  172  A    between atoms: _398  and  _400
REMARK  173  A    between atoms: _400  and  _401
REMARK  174  A    between atoms: _400  and  _403
REMARK  175  A    between atoms: _403  and  _404
REMARK  176  A    between atoms: _407  and  _409
REMARK  177  A    between atoms: _409  and  _410
REMARK  178  A    between atoms: _409  and  _412
REMARK  179  A    between atoms: _412  and  _413
REMARK  180  A    between atoms: _413  and  _414
REMARK  181  A    between atoms: _414  and  _415
REMARK  182  A    between atoms: _415  and  _416
REMARK  183  A    between atoms: _420  and  _422
REMARK  184  A    between atoms: _422  and  _423
REMARK  185  A    between atoms: _422  and  _425
REMARK  186  A    between atoms: _425  and  _426
REMARK  187  A    between atoms: _426  and  _427
REMARK  188  A    between atoms: _427  and  _428
REMARK  189  A    between atoms: _437  and  _439
REMARK  190  A    between atoms: _439  and  _440
REMARK  191  A    between atoms: _439  and  _442
REMARK  192  A    between atoms: _442  and  _443
REMARK  193  A    between atoms: _446  and  _448
REMARK  194  A    between atoms: _448  and  _449
REMARK  195  A    between atoms: _448  and  _451
REMARK  196  A    between atoms: _454  and  _456
REMARK  197  A    between atoms: _456  and  _457
REMARK  198  A    between atoms: _456  and  _459
REMARK  199  A    between atoms: _459  and  _460
REMARK  200  A    between atoms: _460  and  _461
REMARK  201  A    between atoms: _464  and  _466
REMARK  202  A    between atoms: _466  and  _467
REMARK  203  A    between atoms: _466  and  _469
REMARK  204  A    between atoms: _471  and  _473
REMARK  205  A    between atoms: _473  and  _474
REMARK  206  A    between atoms: _473  and  _476
REMARK  207  A    between atoms: _479  and  _481
REMARK  208  A    between atoms: _481  and  _482
REMARK  209  A    between atoms: _481  and  _484
REMARK  210  A    between atoms: _484  and  _485
REMARK  211  A    between atoms: _487  and  _489
REMARK  212  A    between atoms: _489  and  _490
REMARK  213  A    between atoms: _489  and  _492
REMARK  214  A    between atoms: _492  and  _493
REMARK  215  A    between atoms: _496  and  _498
REMARK  216  A    between atoms: _498  and  _499
REMARK  217  A    between atoms: _498  and  _501
REMARK  218  A    between atoms: _501  and  _502
REMARK  219  A    between atoms: _502  and  _503
REMARK  220  A    between atoms: _503  and  _504
REMARK  221  A    between atoms: _513  and  _515
REMARK  222  A    between atoms: _515  and  _516
REMARK  223  A    between atoms: _515  and  _518
REMARK  224  A    between atoms: _521  and  _523
REMARK  225  A    between atoms: _523  and  _524
REMARK  226  A    between atoms: _523  and  _526
REMARK  227  A    between atoms: _526  and  _527
REMARK  228  A    between atoms: _532  and  _533
REMARK                            x       y       z     vdW  Elec       q    Type
REMARK                         _______ _______ _______ _____ _____    ______ ____
ROOT
ATOM      1  O   HOH     1      33.710  47.400  16.780  0.00  0.00    +0.000 OA
ENDROOT
TORSDOF 0
REMARK  Name = ../refined-set-2016/2hnx/2hnx_pocket.pdb
REMARK  228 active torsions:
REMARK  status: ('A' for Active; 'I' for Inactive)
REMARK    1  A    between atoms: _1  and  _3
REMARK    2  A    between atoms: _3  and  _4
REMARK    3  A    between atoms: _3  and  _6
REMARK    4  A    between atoms: _6  and  _7
REMARK    5  A    between atoms: _10  and  _12
REMARK    6  A    between atoms: _12  and  _13
REMARK    7  A    between atoms: _12  and  _15
REMARK    8  A    between atoms: _15  and  _16
REMARK    9  A    between atoms: _18  and  _20
REMARK   10  A    between atoms: _20  and  _21
REMARK   11  A    between atoms: _20  and  _23
REMARK   12  A    between atoms: _23  and  _24
REMARK   13  A    between atoms: _26  and  _28
REMARK   14  A    between atoms: _28  and  _29
REMARK   15  A    between atoms: _28  and  _31
REMARK   16  A    between atoms: _31  and  _32
REMARK   17  A    between atoms: _38  and  _40
REMARK   18  A    between atoms: _40  and  _41
REMARK   19  A    between atoms: _40  and  _43
REMARK   20  A    between atoms: _43  and  _44
REMARK   21  A    between atoms: _49  and  _50
REMARK   22  A    between atoms: _52  and  _54
REMARK   23  A    between atoms: _54  and  _55
REMARK   24  A    between atoms: _54  and  _57
REMARK   25  A    between atoms: _57  and  _58
REMARK   26  A    between atoms: _58  and  _59
REMARK   27  A    between atoms: _61  and  _63
REMARK   28  A    between atoms: _63  and  _64
REMARK   29  A    between atoms: _63  and  _66
REMARK   30  A    between atoms: _66  and  _67
REMARK   31  A    between atoms: _67  and  _68
REMARK   32  A    between atoms: _68  and  _69
REMARK   33  A    between atoms: _69  and  _70
REMARK   34  A    between atoms: _74  and  _76
REMARK   35  A    between atoms: _76  and  _77
REMARK   36  A    between atoms: _76  and  _79
REMARK   37  A    between atoms: _82  and  _84
REMARK   38  A    between atoms: _84  and  _85
REMARK   39  A    between atoms: _84  and  _87
REMARK   40  A    between atoms: _90  and  _92
REMARK   41  A    between atoms: _92  and  _93
REMARK   42  A    between atoms: _95  and  _97
REMARK   43  A    between atoms: _97  and  _98
REMARK   44  A    between atoms: _97  and  _100
REMARK   45  A    between atoms: _100  and  _101
REMARK   46  A    between atoms: _104  and  _106
REMARK   47  A    between atoms: _106  and  _107
REMARK   48  A    between atoms: _106  and  _109
REMARK   49  A    between atoms: _109  and  _110
REMARK   50  A    between atoms: _110  and  _111
REMARK   51  A    between atoms: _111  and  _112
REMARK   52  A    between atoms: _121  and  _123
REMARK   53  A    between atoms: _123  and  _124
REMARK   54  A    between atoms: _123  and  _126
REMARK   55  A    between atoms: _129  and  _131
REMARK   56  A    between atoms: _131  and  _132
REMARK   57  A    between atoms: _135  and  _137
REMARK   58  A    between atoms: _137  and  _138
REMARK   59  A    between atoms: _140  and  _142
REMARK   60  A    between atoms: _142  and  _143
REMARK   61  A    between atoms: _142  and  _145
REMARK   62  A    between atoms: _145  and  _146
REMARK   63  A    between atoms: _146  and  _147
REMARK   64  A    between atoms: _149  and  _151
REMARK   65  A    between atoms: _151  and  _152
REMARK   66  A    between atoms: _155  and  _157
REMARK   67  A    between atoms: _157  and  _158
REMARK   68  A    between atoms: _157  and  _160
REMARK   69  A    between atoms: _160  and  _161
REMARK   70  A    between atoms: _161  and  _162
REMARK   71  A    between atoms: _162  and  _163
REMARK   72  A    between atoms: _163  and  _164
REMARK   73  A    between atoms: _169  and  _170
REMARK   74  A    between atoms: _175  and  _177
REMARK   75  A    between atoms: _177  and  _178
REMARK   76  A    between atoms: _177  and  _180
REMARK   77  A    between atoms: _180  and  _181
REMARK   78  A    between atoms: _186  and  _188
REMARK   79  A    between atoms: _188  and  _189
REMARK   80  A    between atoms: _188  and  _191
REMARK   81  A    between atoms: _191  and  _192
REMARK   82  A    between atoms: _192  and  _193
REMARK   83  A    between atoms: _195  and  _197
REMARK   84  A    between atoms: _197  and  _198
REMARK   85  A    between atoms: _197  and  _200
REMARK   86  A    between atoms: _200  and  _201
REMARK   87  A    between atoms: _204  and  _206
REMARK   88  A    between atoms: _206  and  _207
REMARK   89  A    between atoms: _206  and  _209
REMARK   90  A    between atoms: _209  and  _210
REMARK   91  A    between atoms: _210  and  _211
REMARK   92  A    between atoms: _211  and  _212
REMARK   93  A    between atoms: _212  and  _213
REMARK   94  A    between atoms: _217  and  _219
REMARK   95  A    between atoms: _219  and  _220
REMARK   96  A    between atoms: _219  and  _222
REMARK   97  A    between atoms: _222  and  _223
REMARK   98  A    between atoms: _225  and  _227
REMARK   99  A    between atoms: _227  and  _228
REMARK  100  A    between atoms: _227  and  _230
REMARK  101  A    between atoms: _230  and  _231
REMARK  102  A    between atoms: _231  and  _232
REMARK  103  A    between atoms: _235  and  _237
REMARK  104  A    between atoms: _237  and  _238
REMARK  105  A    between atoms: _237  and  _240
REMARK  106  A    between atoms: _240  and  _241
REMARK  107  A    between atoms: _243  and  _245
REMARK  108  A    between atoms: _245  and  _246
REMARK  109  A    between atoms: _245  and  _248
REMARK  110  A    between atoms: _248  and  _249
REMARK  111  A    between atoms: _252  and  _254
REMARK  112  A    between atoms: _254  and  _255
REMARK  113  A    between atoms: _254  and  _257
REMARK  114  A    between atoms: _257  and  _258
REMARK  115  A    between atoms: _264  and  _266
REMARK  116  A    between atoms: _266  and  _267
REMARK  117  A    between atoms: _266  and  _269
REMARK  118  A    between atoms: _269  and  _270
REMARK  119  A    between atoms: _270  and  _271
REMARK  120  A    between atoms: _271  and  _272
REMARK  121  A    between atoms: _272  and  _273
REMARK  122  A    between atoms: _277  and  _279
REMARK  123  A    between atoms: _279  and  _280
REMARK  124  A    between atoms: _279  and  _282
REMARK  125  A    between atoms: _282  and  _283
REMARK  126  A    between atoms: _288  and  _290
REMARK  127  A    between atoms: _290  and  _291
REMARK  128  A    between atoms: _290  and  _293
REMARK  129  A    between atoms: _293  and  _294
REMARK  130  A    between atoms: _297  and  _299
REMARK  131  A    between atoms: _299  and  _300
REMARK  132  A    between atoms: _299  and  _302
REMARK  133  A    between atoms: _302  and  _303
REMARK  134  A    between atoms: _303  and  _304
REMARK  135  A    between atoms: _307  and  _309
REMARK  136  A    between atoms: _309  and  _310
REMARK  137  A    between atoms: _309  and  _312
REMARK  138  A    between atoms: _312  and  _313
REMARK  139  A    between atoms: _316  and  _318
REMARK  140  A    between atoms: _318  and  _319
REMARK  141  A    between atoms: _322  and  _324
REMARK  142  A    between atoms: _324  and  _325
REMARK  143  A    between atoms: _324  and  _327
REMARK  144  A    between atoms: _327  and  _328
REMARK  145  A    between atoms: _331  and  _333
REMARK  146  A    between atoms: _333  and  _334
REMARK  147  A    between atoms: _333  and  _336
REMARK  148  A    between atoms: _336  and  _337
REMARK  149  A    between atoms: _340  and  _342
REMARK  150  A    between atoms: _342  and  _343
REMARK  151  A    between atoms: _342  and  _345
REMARK  152  A    between atoms: _345  and  _346
REMARK  153  A    between atoms: _346  and  _347
REMARK  154  A    between atoms: _347  and  _348
REMARK  155  A    between atoms: _357  and  _359
REMARK  156  A    between atoms: _359  and  _360
REMARK  157  A    between atoms: _359  and  _362
REMARK  158  A    between atoms: _362  and  _363
REMARK  159  A    between atoms: _368  and  _370
REMARK  160  A    between atoms: _370  and  _371
REMARK  161  A    between atoms: _370  and  _373
REMARK  162  A    between atoms: _373  and  _374
REMARK  163  A    between atoms: _374  and  _375
REMARK  164  A    between atoms: _380  and  _382
REMARK  165  A    between atoms: _382  and  _383
REMARK  166  A    between atoms: _382  and  _385
REMARK  167  A    between atoms: _385  and  _386
REMARK  168  A    between atoms: _389  and  _391
REMARK  169  A    between atoms: _391  and  _392
REMARK  170  A    between atoms: _391  and  _394
REMARK  171  A    between atoms: _394  and  _395
REMARK  172  A    between atoms: _398  and  _400
REMARK  173  A    between atoms: _400  and  _401
REMARK  174  A    between atoms: _400  and  _403
REMARK  175  A    between atoms: _403  and  _404
REMARK  176  A    between atoms: _407  and  _409
REMARK  177  A    between atoms: _409  and  _410
REMARK  178  A    between atoms: _409  and  _412
REMARK  179  A    between atoms: _412  and  _413
REMARK  180  A    between atoms: _413  and  _414
REMARK  181  A    between atoms: _414  and  _415
REMARK  182  A    between atoms: _415  and  _416
REMARK  183  A    between atoms: _420  and  _422
REMARK  184  A    between atoms: _422  and  _423
REMARK  185  A    between atoms: _422  and  _425
REMARK  186  A    between atoms: _425  and  _426
REMARK  187  A    between atoms: _426  and  _427
REMARK  188  A    between atoms: _427  and  _428
REMARK  189  A    between atoms: _437  and  _439
REMARK  190  A    between atoms: _439  and  _440
REMARK  191  A    between atoms: _439  and  _442
REMARK  192  A    between atoms: _442  and  _443
REMARK  193  A    between atoms: _446  and  _448
REMARK  194  A    between atoms: _448  and  _449
REMARK  195  A    between atoms: _448  and  _451
REMARK  196  A    between atoms: _454  and  _456
REMARK  197  A    between atoms: _456  and  _457
REMARK  198  A    between atoms: _456  and  _459
REMARK  199  A    between atoms: _459  and  _460
REMARK  200  A    between atoms: _460  and  _461
REMARK  201  A    between atoms: _464  and  _466
REMARK  202  A    between atoms: _466  and  _467
REMARK  203  A    between atoms: _466  and  _469
REMARK  204  A    between atoms: _471  and  _473
REMARK  205  A    between atoms: _473  and  _474
REMARK  206  A    between atoms: _473  and  _476
REMARK  207  A    between atoms: _479  and  _481
REMARK  208  A    between atoms: _481  and  _482
REMARK  209  A    between atoms: _481  and  _484
REMARK  210  A    between atoms: _484  and  _485
REMARK  211  A    between atoms: _487  and  _489
REMARK  212  A    between atoms: _489  and  _490
REMARK  213  A    between atoms: _489  and  _492
REMARK  214  A    between atoms: _492  and  _493
REMARK  215  A    between atoms: _496  and  _498
REMARK  216  A    between atoms: _498  and  _499
REMARK  217  A    between atoms: _498  and  _501
REMARK  218  A    between atoms: _501  and  _502
REMARK  219  A    between atoms: _502  and  _503
REMARK  220  A    between atoms: _503  and  _504
REMARK  221  A    between atoms: _513  and  _515
REMARK  222  A    between atoms: _515  and  _516
REMARK  223  A    between atoms: _515  and  _518
REMARK  224  A    between atoms: _521  and  _523
REMARK  225  A    between atoms: _523  and  _524
REMARK  226  A    between atoms: _523  and  _526
REMARK  227  A    between atoms: _526  and  _527
REMARK  228  A    between atoms: _532  and  _533
REMARK                            x       y       z     vdW  Elec       q    Type
REMARK                         _______ _______ _______ _____ _____    ______ ____
ROOT
ATOM      1  O   HOH     1      29.005  42.801  19.749  0.00  0.00    +0.000 OA
ENDROOT
TORSDOF 0
REMARK  Name = ../refined-set-2016/2hnx/2hnx_pocket.pdb
REMARK  228 active torsions:
REMARK  status: ('A' for Active; 'I' for Inactive)
REMARK    1  A    between atoms: _1  and  _3
REMARK    2  A    between atoms: _3  and  _4
REMARK    3  A    between atoms: _3  and  _6
REMARK    4  A    between atoms: _6  and  _7
REMARK    5  A    between atoms: _10  and  _12
REMARK    6  A    between atoms: _12  and  _13
REMARK    7  A    between atoms: _12  and  _15
REMARK    8  A    between atoms: _15  and  _16
REMARK    9  A    between atoms: _18  and  _20
REMARK   10  A    between atoms: _20  and  _21
REMARK   11  A    between atoms: _20  and  _23
REMARK   12  A    between atoms: _23  and  _24
REMARK   13  A    between atoms: _26  and  _28
REMARK   14  A    between atoms: _28  and  _29
REMARK   15  A    between atoms: _28  and  _31
REMARK   16  A    between atoms: _31  and  _32
REMARK   17  A    between atoms: _38  and  _40
REMARK   18  A    between atoms: _40  and  _41
REMARK   19  A    between atoms: _40  and  _43
REMARK   20  A    between atoms: _43  and  _44
REMARK   21  A    between atoms: _49  and  _50
REMARK   22  A    between atoms: _52  and  _54
REMARK   23  A    between atoms: _54  and  _55
REMARK   24  A    between atoms: _54  and  _57
REMARK   25  A    between atoms: _57  and  _58
REMARK   26  A    between atoms: _58  and  _59
REMARK   27  A    between atoms: _61  and  _63
REMARK   28  A    between atoms: _63  and  _64
REMARK   29  A    between atoms: _63  and  _66
REMARK   30  A    between atoms: _66  and  _67
REMARK   31  A    between atoms: _67  and  _68
REMARK   32  A    between atoms: _68  and  _69
REMARK   33  A    between atoms: _69  and  _70
REMARK   34  A    between atoms: _74  and  _76
REMARK   35  A    between atoms: _76  and  _77
REMARK   36  A    between atoms: _76  and  _79
REMARK   37  A    between atoms: _82  and  _84
REMARK   38  A    between atoms: _84  and  _85
REMARK   39  A    between atoms: _84  and  _87
REMARK   40  A    between atoms: _90  and  _92
REMARK   41  A    between atoms: _92  and  _93
REMARK   42  A    between atoms: _95  and  _97
REMARK   43  A    between atoms: _97  and  _98
REMARK   44  A    between atoms: _97  and  _100
REMARK   45  A    between atoms: _100  and  _101
REMARK   46  A    between atoms: _104  and  _106
REMARK   47  A    between atoms: _106  and  _107
REMARK   48  A    between atoms: _106  and  _109
REMARK   49  A    between atoms: _109  and  _110
REMARK   50  A    between atoms: _110  and  _111
REMARK   51  A    between atoms: _111  and  _112
REMARK   52  A    between atoms: _121  and  _123
REMARK   53  A    between atoms: _123  and  _124
REMARK   54  A    between atoms: _123  and  _126
REMARK   55  A    between atoms: _129  and  _131
REMARK   56  A    between atoms: _131  and  _132
REMARK   57  A    between atoms: _135  and  _137
REMARK   58  A    between atoms: _137  and  _138
REMARK   59  A    between atoms: _140  and  _142
REMARK   60  A    between atoms: _142  and  _143
REMARK   61  A    between atoms: _142  and  _145
REMARK   62  A    between atoms: _145  and  _146
REMARK   63  A    between atoms: _146  and  _147
REMARK   64  A    between atoms: _149  and  _151
REMARK   65  A    between atoms: _151  and  _152
REMARK   66  A    between atoms: _155  and  _157
REMARK   67  A    between atoms: _157  and  _158
REMARK   68  A    between atoms: _157  and  _160
REMARK   69  A    between atoms: _160  and  _161
REMARK   70  A    between atoms: _161  and  _162
REMARK   71  A    between atoms: _162  and  _163
REMARK   72  A    between atoms: _163  and  _164
REMARK   73  A    between atoms: _169  and  _170
REMARK   74  A    between atoms: _175  and  _177
REMARK   75  A    between atoms: _177  and  _178
REMARK   76  A    between atoms: _177  and  _180
REMARK   77  A    between atoms: _180  and  _181
REMARK   78  A    between atoms: _186  and  _188
REMARK   79  A    between atoms: _188  and  _189
REMARK   80  A    between atoms: _188  and  _191
REMARK   81  A    between atoms: _191  and  _192
REMARK   82  A    between atoms: _192  and  _193
REMARK   83  A    between atoms: _195  and  _197
REMARK   84  A    between atoms: _197  and  _198
REMARK   85  A    between atoms: _197  and  _200
REMARK   86  A    between atoms: _200  and  _201
REMARK   87  A    between atoms: _204  and  _206
REMARK   88  A    between atoms: _206  and  _207
REMARK   89  A    between atoms: _206  and  _209
REMARK   90  A    between atoms: _209  and  _210
REMARK   91  A    between atoms: _210  and  _211
REMARK   92  A    between atoms: _211  and  _212
REMARK   93  A    between atoms: _212  and  _213
REMARK   94  A    between atoms: _217  and  _219
REMARK   95  A    between atoms: _219  and  _220
REMARK   96  A    between atoms: _219  and  _222
REMARK   97  A    between atoms: _222  and  _223
REMARK   98  A    between atoms: _225  and  _227
REMARK   99  A    between atoms: _227  and  _228
REMARK  100  A    between atoms: _227  and  _230
REMARK  101  A    between atoms: _230  and  _231
REMARK  102  A    between atoms: _231  and  _232
REMARK  103  A    between atoms: _235  and  _237
REMARK  104  A    between atoms: _237  and  _238
REMARK  105  A    between atoms: _237  and  _240
REMARK  106  A    between atoms: _240  and  _241
REMARK  107  A    between atoms: _243  and  _245
REMARK  108  A    between atoms: _245  and  _246
REMARK  109  A    between atoms: _245  and  _248
REMARK  110  A    between atoms: _248  and  _249
REMARK  111  A    between atoms: _252  and  _254
REMARK  112  A    between atoms: _254  and  _255
REMARK  113  A    between atoms: _254  and  _257
REMARK  114  A    between atoms: _257  and  _258
REMARK  115  A    between atoms: _264  and  _266
REMARK  116  A    between atoms: _266  and  _267
REMARK  117  A    between atoms: _266  and  _269
REMARK  118  A    between atoms: _269  and  _270
REMARK  119  A    between atoms: _270  and  _271
REMARK  120  A    between atoms: _271  and  _272
REMARK  121  A    between atoms: _272  and  _273
REMARK  122  A    between atoms: _277  and  _279
REMARK  123  A    between atoms: _279  and  _280
REMARK  124  A    between atoms: _279  and  _282
REMARK  125  A    between atoms: _282  and  _283
REMARK  126  A    between atoms: _288  and  _290
REMARK  127  A    between atoms: _290  and  _291
REMARK  128  A    between atoms: _290  and  _293
REMARK  129  A    between atoms: _293  and  _294
REMARK  130  A    between atoms: _297  and  _299
REMARK  131  A    between atoms: _299  and  _300
REMARK  132  A    between atoms: _299  and  _302
REMARK  133  A    between atoms: _302  and  _303
REMARK  134  A    between atoms: _303  and  _304
REMARK  135  A    between atoms: _307  and  _309
REMARK  136  A    between atoms: _309  and  _310
REMARK  137  A    between atoms: _309  and  _312
REMARK  138  A    between atoms: _312  and  _313
REMARK  139  A    between atoms: _316  and  _318
REMARK  140  A    between atoms: _318  and  _319
REMARK  141  A    between atoms: _322  and  _324
REMARK  142  A    between atoms: _324  and  _325
REMARK  143  A    between atoms: _324  and  _327
REMARK  144  A    between atoms: _327  and  _328
REMARK  145  A    between atoms: _331  and  _333
REMARK  146  A    between atoms: _333  and  _334
REMARK  147  A    between atoms: _333  and  _336
REMARK  148  A    between atoms: _336  and  _337
REMARK  149  A    between atoms: _340  and  _342
REMARK  150  A    between atoms: _342  and  _343
REMARK  151  A    between atoms: _342  and  _345
REMARK  152  A    between atoms: _345  and  _346
REMARK  153  A    between atoms: _346  and  _347
REMARK  154  A    between atoms: _347  and  _348
REMARK  155  A    between atoms: _357  and  _359
REMARK  156  A    between atoms: _359  and  _360
REMARK  157  A    between atoms: _359  and  _362
REMARK  158  A    between atoms: _362  and  _363
REMARK  159  A    between atoms: _368  and  _370
REMARK  160  A    between atoms: _370  and  _371
REMARK  161  A    between atoms: _370  and  _373
REMARK  162  A    between atoms: _373  and  _374
REMARK  163  A    between atoms: _374  and  _375
REMARK  164  A    between atoms: _380  and  _382
REMARK  165  A    between atoms: _382  and  _383
REMARK  166  A    between atoms: _382  and  _385
REMARK  167  A    between atoms: _385  and  _386
REMARK  168  A    between atoms: _389  and  _391
REMARK  169  A    between atoms: _391  and  _392
REMARK  170  A    between atoms: _391  and  _394
REMARK  171  A    between atoms: _394  and  _395
REMARK  172  A    between atoms: _398  and  _400
REMARK  173  A    between atoms: _400  and  _401
REMARK  174  A    between atoms: _400  and  _403
REMARK  175  A    between atoms: _403  and  _404
REMARK  176  A    between atoms: _407  and  _409
REMARK  177  A    between atoms: _409  and  _410
REMARK  178  A    between atoms: _409  and  _412
REMARK  179  A    between atoms: _412  and  _413
REMARK  180  A    between atoms: _413  and  _414
REMARK  181  A    between atoms: _414  and  _415
REMARK  182  A    between atoms: _415  and  _416
REMARK  183  A    between atoms: _420  and  _422
REMARK  184  A    between atoms: _422  and  _423
REMARK  185  A    between atoms: _422  and  _425
REMARK  186  A    between atoms: _425  and  _426
REMARK  187  A    between atoms: _426  and  _427
REMARK  188  A    between atoms: _427  and  _428
REMARK  189  A    between atoms: _437  and  _439
REMARK  190  A    between atoms: _439  and  _440
REMARK  191  A    between atoms: _439  and  _442
REMARK  192  A    between atoms: _442  and  _443
REMARK  193  A    between atoms: _446  and  _448
REMARK  194  A    between atoms: _448  and  _449
REMARK  195  A    between atoms: _448  and  _451
REMARK  196  A    between atoms: _454  and  _456
REMARK  197  A    between atoms: _456  and  _457
REMARK  198  A    between atoms: _456  and  _459
REMARK  199  A    between atoms: _459  and  _460
REMARK  200  A    between atoms: _460  and  _461
REMARK  201  A    between atoms: _464  and  _466
REMARK  202  A    between atoms: _466  and  _467
REMARK  203  A    between atoms: _466  and  _469
REMARK  204  A    between atoms: _471  and  _473
REMARK  205  A    between atoms: _473  and  _474
REMARK  206  A    between atoms: _473  and  _476
REMARK  207  A    between atoms: _479  and  _481
REMARK  208  A    between atoms: _481  and  _482
REMARK  209  A    between atoms: _481  and  _484
REMARK  210  A    between atoms: _484  and  _485
REMARK  211  A    between atoms: _487  and  _489
REMARK  212  A    between atoms: _489  and  _490
REMARK  213  A    between atoms: _489  and  _492
REMARK  214  A    between atoms: _492  and  _493
REMARK  215  A    between atoms: _496  and  _498
REMARK  216  A    between atoms: _498  and  _499
REMARK  217  A    between atoms: _498  and  _501
REMARK  218  A    between atoms: _501  and  _502
REMARK  219  A    between atoms: _502  and  _503
REMARK  220  A    between atoms: _503  and  _504
REMARK  221  A    between atoms: _513  and  _515
REMARK  222  A    between atoms: _515  and  _516
REMARK  223  A    between atoms: _515  and  _518
REMARK  224  A    between atoms: _521  and  _523
REMARK  225  A    between atoms: _523  and  _524
REMARK  226  A    between atoms: _523  and  _526
REMARK  227  A    between atoms: _526  and  _527
REMARK  228  A    between atoms: _532  and  _533
REMARK                            x       y       z     vdW  Elec       q    Type
REMARK                         _______ _______ _______ _____ _____    ______ ____
ROOT
ATOM      1  O   HOH     1      29.669  40.393  18.427  0.00  0.00    +0.000 OA
ENDROOT
TORSDOF 0
REMARK  Name = ../refined-set-2016/2hnx/2hnx_pocket.pdb
REMARK  228 active torsions:
REMARK  status: ('A' for Active; 'I' for Inactive)
REMARK    1  A    between atoms: _1  and  _3
REMARK    2  A    between atoms: _3  and  _4
REMARK    3  A    between atoms: _3  and  _6
REMARK    4  A    between atoms: _6  and  _7
REMARK    5  A    between atoms: _10  and  _12
REMARK    6  A    between atoms: _12  and  _13
REMARK    7  A    between atoms: _12  and  _15
REMARK    8  A    between atoms: _15  and  _16
REMARK    9  A    between atoms: _18  and  _20
REMARK   10  A    between atoms: _20  and  _21
REMARK   11  A    between atoms: _20  and  _23
REMARK   12  A    between atoms: _23  and  _24
REMARK   13  A    between atoms: _26  and  _28
REMARK   14  A    between atoms: _28  and  _29
REMARK   15  A    between atoms: _28  and  _31
REMARK   16  A    between atoms: _31  and  _32
REMARK   17  A    between atoms: _38  and  _40
REMARK   18  A    between atoms: _40  and  _41
REMARK   19  A    between atoms: _40  and  _43
REMARK   20  A    between atoms: _43  and  _44
REMARK   21  A    between atoms: _49  and  _50
REMARK   22  A    between atoms: _52  and  _54
REMARK   23  A    between atoms: _54  and  _55
REMARK   24  A    between atoms: _54  and  _57
REMARK   25  A    between atoms: _57  and  _58
REMARK   26  A    between atoms: _58  and  _59
REMARK   27  A    between atoms: _61  and  _63
REMARK   28  A    between atoms: _63  and  _64
REMARK   29  A    between atoms: _63  and  _66
REMARK   30  A    between atoms: _66  and  _67
REMARK   31  A    between atoms: _67  and  _68
REMARK   32  A    between atoms: _68  and  _69
REMARK   33  A    between atoms: _69  and  _70
REMARK   34  A    between atoms: _74  and  _76
REMARK   35  A    between atoms: _76  and  _77
REMARK   36  A    between atoms: _76  and  _79
REMARK   37  A    between atoms: _82  and  _84
REMARK   38  A    between atoms: _84  and  _85
REMARK   39  A    between atoms: _84  and  _87
REMARK   40  A    between atoms: _90  and  _92
REMARK   41  A    between atoms: _92  and  _93
REMARK   42  A    between atoms: _95  and  _97
REMARK   43  A    between atoms: _97  and  _98
REMARK   44  A    between atoms: _97  and  _100
REMARK   45  A    between atoms: _100  and  _101
REMARK   46  A    between atoms: _104  and  _106
REMARK   47  A    between atoms: _106  and  _107
REMARK   48  A    between atoms: _106  and  _109
REMARK   49  A    between atoms: _109  and  _110
REMARK   50  A    between atoms: _110  and  _111
REMARK   51  A    between atoms: _111  and  _112
REMARK   52  A    between atoms: _121  and  _123
REMARK   53  A    between atoms: _123  and  _124
REMARK   54  A    between atoms: _123  and  _126
REMARK   55  A    between atoms: _129  and  _131
REMARK   56  A    between atoms: _131  and  _132
REMARK   57  A    between atoms: _135  and  _137
REMARK   58  A    between atoms: _137  and  _138
REMARK   59  A    between atoms: _140  and  _142
REMARK   60  A    between atoms: _142  and  _143
REMARK   61  A    between atoms: _142  and  _145
REMARK   62  A    between atoms: _145  and  _146
REMARK   63  A    between atoms: _146  and  _147
REMARK   64  A    between atoms: _149  and  _151
REMARK   65  A    between atoms: _151  and  _152
REMARK   66  A    between atoms: _155  and  _157
REMARK   67  A    between atoms: _157  and  _158
REMARK   68  A    between atoms: _157  and  _160
REMARK   69  A    between atoms: _160  and  _161
REMARK   70  A    between atoms: _161  and  _162
REMARK   71  A    between atoms: _162  and  _163
REMARK   72  A    between atoms: _163  and  _164
REMARK   73  A    between atoms: _169  and  _170
REMARK   74  A    between atoms: _175  and  _177
REMARK   75  A    between atoms: _177  and  _178
REMARK   76  A    between atoms: _177  and  _180
REMARK   77  A    between atoms: _180  and  _181
REMARK   78  A    between atoms: _186  and  _188
REMARK   79  A    between atoms: _188  and  _189
REMARK   80  A    between atoms: _188  and  _191
REMARK   81  A    between atoms: _191  and  _192
REMARK   82  A    between atoms: _192  and  _193
REMARK   83  A    between atoms: _195  and  _197
REMARK   84  A    between atoms: _197  and  _198
REMARK   85  A    between atoms: _197  and  _200
REMARK   86  A    between atoms: _200  and  _201
REMARK   87  A    between atoms: _204  and  _206
REMARK   88  A    between atoms: _206  and  _207
REMARK   89  A    between atoms: _206  and  _209
REMARK   90  A    between atoms: _209  and  _210
REMARK   91  A    between atoms: _210  and  _211
REMARK   92  A    between atoms: _211  and  _212
REMARK   93  A    between atoms: _212  and  _213
REMARK   94  A    between atoms: _217  and  _219
REMARK   95  A    between atoms: _219  and  _220
REMARK   96  A    between atoms: _219  and  _222
REMARK   97  A    between atoms: _222  and  _223
REMARK   98  A    between atoms: _225  and  _227
REMARK   99  A    between atoms: _227  and  _228
REMARK  100  A    between atoms: _227  and  _230
REMARK  101  A    between atoms: _230  and  _231
REMARK  102  A    between atoms: _231  and  _232
REMARK  103  A    between atoms: _235  and  _237
REMARK  104  A    between atoms: _237  and  _238
REMARK  105  A    between atoms: _237  and  _240
REMARK  106  A    between atoms: _240  and  _241
REMARK  107  A    between atoms: _243  and  _245
REMARK  108  A    between atoms: _245  and  _246
REMARK  109  A    between atoms: _245  and  _248
REMARK  110  A    between atoms: _248  and  _249
REMARK  111  A    between atoms: _252  and  _254
REMARK  112  A    between atoms: _254  and  _255
REMARK  113  A    between atoms: _254  and  _257
REMARK  114  A    between atoms: _257  and  _258
REMARK  115  A    between atoms: _264  and  _266
REMARK  116  A    between atoms: _266  and  _267
REMARK  117  A    between atoms: _266  and  _269
REMARK  118  A    between atoms: _269  and  _270
REMARK  119  A    between atoms: _270  and  _271
REMARK  120  A    between atoms: _271  and  _272
REMARK  121  A    between atoms: _272  and  _273
REMARK  122  A    between atoms: _277  and  _279
REMARK  123  A    between atoms: _279  and  _280
REMARK  124  A    between atoms: _279  and  _282
REMARK  125  A    between atoms: _282  and  _283
REMARK  126  A    between atoms: _288  and  _290
REMARK  127  A    between atoms: _290  and  _291
REMARK  128  A    between atoms: _290  and  _293
REMARK  129  A    between atoms: _293  and  _294
REMARK  130  A    between atoms: _297  and  _299
REMARK  131  A    between atoms: _299  and  _300
REMARK  132  A    between atoms: _299  and  _302
REMARK  133  A    between atoms: _302  and  _303
REMARK  134  A    between atoms: _303  and  _304
REMARK  135  A    between atoms: _307  and  _309
REMARK  136  A    between atoms: _309  and  _310
REMARK  137  A    between atoms: _309  and  _312
REMARK  138  A    between atoms: _312  and  _313
REMARK  139  A    between atoms: _316  and  _318
REMARK  140  A    between atoms: _318  and  _319
REMARK  141  A    between atoms: _322  and  _324
REMARK  142  A    between atoms: _324  and  _325
REMARK  143  A    between atoms: _324  and  _327
REMARK  144  A    between atoms: _327  and  _328
REMARK  145  A    between atoms: _331  and  _333
REMARK  146  A    between atoms: _333  and  _334
REMARK  147  A    between atoms: _333  and  _336
REMARK  148  A    between atoms: _336  and  _337
REMARK  149  A    between atoms: _340  and  _342
REMARK  150  A    between atoms: _342  and  _343
REMARK  151  A    between atoms: _342  and  _345
REMARK  152  A    between atoms: _345  and  _346
REMARK  153  A    between atoms: _346  and  _347
REMARK  154  A    between atoms: _347  and  _348
REMARK  155  A    between atoms: _357  and  _359
REMARK  156  A    between atoms: _359  and  _360
REMARK  157  A    between atoms: _359  and  _362
REMARK  158  A    between atoms: _362  and  _363
REMARK  159  A    between atoms: _368  and  _370
REMARK  160  A    between atoms: _370  and  _371
REMARK  161  A    between atoms: _370  and  _373
REMARK  162  A    between atoms: _373  and  _374
REMARK  163  A    between atoms: _374  and  _375
REMARK  164  A    between atoms: _380  and  _382
REMARK  165  A    between atoms: _382  and  _383
REMARK  166  A    between atoms: _382  and  _385
REMARK  167  A    between atoms: _385  and  _386
REMARK  168  A    between atoms: _389  and  _391
REMARK  169  A    between atoms: _391  and  _392
REMARK  170  A    between atoms: _391  and  _394
REMARK  171  A    between atoms: _394  and  _395
REMARK  172  A    between atoms: _398  and  _400
REMARK  173  A    between atoms: _400  and  _401
REMARK  174  A    between atoms: _400  and  _403
REMARK  175  A    between atoms: _403  and  _404
REMARK  176  A    between atoms: _407  and  _409
REMARK  177  A    between atoms: _409  and  _410
REMARK  178  A    between atoms: _409  and  _412
REMARK  179  A    between atoms: _412  and  _413
REMARK  180  A    between atoms: _413  and  _414
REMARK  181  A    between atoms: _414  and  _415
REMARK  182  A    between atoms: _415  and  _416
REMARK  183  A    between atoms: _420  and  _422
REMARK  184  A    between atoms: _422  and  _423
REMARK  185  A    between atoms: _422  and  _425
REMARK  186  A    between atoms: _425  and  _426
REMARK  187  A    between atoms: _426  and  _427
REMARK  188  A    between atoms: _427  and  _428
REMARK  189  A    between atoms: _437  and  _439
REMARK  190  A    between atoms: _439  and  _440
REMARK  191  A    between atoms: _439  and  _442
REMARK  192  A    between atoms: _442  and  _443
REMARK  193  A    between atoms: _446  and  _448
REMARK  194  A    between atoms: _448  and  _449
REMARK  195  A    between atoms: _448  and  _451
REMARK  196  A    between atoms: _454  and  _456
REMARK  197  A    between atoms: _456  and  _457
REMARK  198  A    between atoms: _456  and  _459
REMARK  199  A    between atoms: _459  and  _460
REMARK  200  A    between atoms: _460  and  _461
REMARK  201  A    between atoms: _464  and  _466
REMARK  202  A    between atoms: _466  and  _467
REMARK  203  A    between atoms: _466  and  _469
REMARK  204  A    between atoms: _471  and  _473
REMARK  205  A    between atoms: _473  and  _474
REMARK  206  A    between atoms: _473  and  _476
REMARK  207  A    between atoms: _479  and  _481
REMARK  208  A    between atoms: _481  and  _482
REMARK  209  A    between atoms: _481  and  _484
REMARK  210  A    between atoms: _484  and  _485
REMARK  211  A    between atoms: _487  and  _489
REMARK  212  A    between atoms: _489  and  _490
REMARK  213  A    between atoms: _489  and  _492
REMARK  214  A    between atoms: _492  and  _493
REMARK  215  A    between atoms: _496  and  _498
REMARK  216  A    between atoms: _498  and  _499
REMARK  217  A    between atoms: _498  and  _501
REMARK  218  A    between atoms: _501  and  _502
REMARK  219  A    between atoms: _502  and  _503
REMARK  220  A    between atoms: _503  and  _504
REMARK  221  A    between atoms: _513  and  _515
REMARK  222  A    between atoms: _515  and  _516
REMARK  223  A    between atoms: _515  and  _518
REMARK  224  A    between atoms: _521  and  _523
REMARK  225  A    between atoms: _523  and  _524
REMARK  226  A    between atoms: _523  and  _526
REMARK  227  A    between atoms: _526  and  _527
REMARK  228  A    between atoms: _532  and  _533
REMARK                            x       y       z     vdW  Elec       q    Type
REMARK                         _______ _______ _______ _____ _____    ______ ____
ROOT
ATOM      1  O   HOH     1      27.552  44.352  29.445  0.00  0.00    +0.000 OA
ENDROOT
TORSDOF 0
REMARK  Name = ../refined-set-2016/2hnx/2hnx_pocket.pdb
REMARK  228 active torsions:
REMARK  status: ('A' for Active; 'I' for Inactive)
REMARK    1  A    between atoms: _1  and  _3
REMARK    2  A    between atoms: _3  and  _4
REMARK    3  A    between atoms: _3  and  _6
REMARK    4  A    between atoms: _6  and  _7
REMARK    5  A    between atoms: _10  and  _12
REMARK    6  A    between atoms: _12  and  _13
REMARK    7  A    between atoms: _12  and  _15
REMARK    8  A    between atoms: _15  and  _16
REMARK    9  A    between atoms: _18  and  _20
REMARK   10  A    between atoms: _20  and  _21
REMARK   11  A    between atoms: _20  and  _23
REMARK   12  A    between atoms: _23  and  _24
REMARK   13  A    between atoms: _26  and  _28
REMARK   14  A    between atoms: _28  and  _29
REMARK   15  A    between atoms: _28  and  _31
REMARK   16  A    between atoms: _31  and  _32
REMARK   17  A    between atoms: _38  and  _40
REMARK   18  A    between atoms: _40  and  _41
REMARK   19  A    between atoms: _40  and  _43
REMARK   20  A    between atoms: _43  and  _44
REMARK   21  A    between atoms: _49  and  _50
REMARK   22  A    between atoms: _52  and  _54
REMARK   23  A    between atoms: _54  and  _55
REMARK   24  A    between atoms: _54  and  _57
REMARK   25  A    between atoms: _57  and  _58
REMARK   26  A    between atoms: _58  and  _59
REMARK   27  A    between atoms: _61  and  _63
REMARK   28  A    between atoms: _63  and  _64
REMARK   29  A    between atoms: _63  and  _66
REMARK   30  A    between atoms: _66  and  _67
REMARK   31  A    between atoms: _67  and  _68
REMARK   32  A    between atoms: _68  and  _69
REMARK   33  A    between atoms: _69  and  _70
REMARK   34  A    between atoms: _74  and  _76
REMARK   35  A    between atoms: _76  and  _77
REMARK   36  A    between atoms: _76  and  _79
REMARK   37  A    between atoms: _82  and  _84
REMARK   38  A    between atoms: _84  and  _85
REMARK   39  A    between atoms: _84  and  _87
REMARK   40  A    between atoms: _90  and  _92
REMARK   41  A    between atoms: _92  and  _93
REMARK   42  A    between atoms: _95  and  _97
REMARK   43  A    between atoms: _97  and  _98
REMARK   44  A    between atoms: _97  and  _100
REMARK   45  A    between atoms: _100  and  _101
REMARK   46  A    between atoms: _104  and  _106
REMARK   47  A    between atoms: _106  and  _107
REMARK   48  A    between atoms: _106  and  _109
REMARK   49  A    between atoms: _109  and  _110
REMARK   50  A    between atoms: _110  and  _111
REMARK   51  A    between atoms: _111  and  _112
REMARK   52  A    between atoms: _121  and  _123
REMARK   53  A    between atoms: _123  and  _124
REMARK   54  A    between atoms: _123  and  _126
REMARK   55  A    between atoms: _129  and  _131
REMARK   56  A    between atoms: _131  and  _132
REMARK   57  A    between atoms: _135  and  _137
REMARK   58  A    between atoms: _137  and  _138
REMARK   59  A    between atoms: _140  and  _142
REMARK   60  A    between atoms: _142  and  _143
REMARK   61  A    between atoms: _142  and  _145
REMARK   62  A    between atoms: _145  and  _146
REMARK   63  A    between atoms: _146  and  _147
REMARK   64  A    between atoms: _149  and  _151
REMARK   65  A    between atoms: _151  and  _152
REMARK   66  A    between atoms: _155  and  _157
REMARK   67  A    between atoms: _157  and  _158
REMARK   68  A    between atoms: _157  and  _160
REMARK   69  A    between atoms: _160  and  _161
REMARK   70  A    between atoms: _161  and  _162
REMARK   71  A    between atoms: _162  and  _163
REMARK   72  A    between atoms: _163  and  _164
REMARK   73  A    between atoms: _169  and  _170
REMARK   74  A    between atoms: _175  and  _177
REMARK   75  A    between atoms: _177  and  _178
REMARK   76  A    between atoms: _177  and  _180
REMARK   77  A    between atoms: _180  and  _181
REMARK   78  A    between atoms: _186  and  _188
REMARK   79  A    between atoms: _188  and  _189
REMARK   80  A    between atoms: _188  and  _191
REMARK   81  A    between atoms: _191  and  _192
REMARK   82  A    between atoms: _192  and  _193
REMARK   83  A    between atoms: _195  and  _197
REMARK   84  A    between atoms: _197  and  _198
REMARK   85  A    between atoms: _197  and  _200
REMARK   86  A    between atoms: _200  and  _201
REMARK   87  A    between atoms: _204  and  _206
REMARK   88  A    between atoms: _206  and  _207
REMARK   89  A    between atoms: _206  and  _209
REMARK   90  A    between atoms: _209  and  _210
REMARK   91  A    between atoms: _210  and  _211
REMARK   92  A    between atoms: _211  and  _212
REMARK   93  A    between atoms: _212  and  _213
REMARK   94  A    between atoms: _217  and  _219
REMARK   95  A    between atoms: _219  and  _220
REMARK   96  A    between atoms: _219  and  _222
REMARK   97  A    between atoms: _222  and  _223
REMARK   98  A    between atoms: _225  and  _227
REMARK   99  A    between atoms: _227  and  _228
REMARK  100  A    between atoms: _227  and  _230
REMARK  101  A    between atoms: _230  and  _231
REMARK  102  A    between atoms: _231  and  _232
REMARK  103  A    between atoms: _235  and  _237
REMARK  104  A    between atoms: _237  and  _238
REMARK  105  A    between atoms: _237  and  _240
REMARK  106  A    between atoms: _240  and  _241
REMARK  107  A    between atoms: _243  and  _245
REMARK  108  A    between atoms: _245  and  _246
REMARK  109  A    between atoms: _245  and  _248
REMARK  110  A    between atoms: _248  and  _249
REMARK  111  A    between atoms: _252  and  _254
REMARK  112  A    between atoms: _254  and  _255
REMARK  113  A    between atoms: _254  and  _257
REMARK  114  A    between atoms: _257  and  _258
REMARK  115  A    between atoms: _264  and  _266
REMARK  116  A    between atoms: _266  and  _267
REMARK  117  A    between atoms: _266  and  _269
REMARK  118  A    between atoms: _269  and  _270
REMARK  119  A    between atoms: _270  and  _271
REMARK  120  A    between atoms: _271  and  _272
REMARK  121  A    between atoms: _272  and  _273
REMARK  122  A    between atoms: _277  and  _279
REMARK  123  A    between atoms: _279  and  _280
REMARK  124  A    between atoms: _279  and  _282
REMARK  125  A    between atoms: _282  and  _283
REMARK  126  A    between atoms: _288  and  _290
REMARK  127  A    between atoms: _290  and  _291
REMARK  128  A    between atoms: _290  and  _293
REMARK  129  A    between atoms: _293  and  _294
REMARK  130  A    between atoms: _297  and  _299
REMARK  131  A    between atoms: _299  and  _300
REMARK  132  A    between atoms: _299  and  _302
REMARK  133  A    between atoms: _302  and  _303
REMARK  134  A    between atoms: _303  and  _304
REMARK  135  A    between atoms: _307  and  _309
REMARK  136  A    between atoms: _309  and  _310
REMARK  137  A    between atoms: _309  and  _312
REMARK  138  A    between atoms: _312  and  _313
REMARK  139  A    between atoms: _316  and  _318
REMARK  140  A    between atoms: _318  and  _319
REMARK  141  A    between atoms: _322  and  _324
REMARK  142  A    between atoms: _324  and  _325
REMARK  143  A    between atoms: _324  and  _327
REMARK  144  A    between atoms: _327  and  _328
REMARK  145  A    between atoms: _331  and  _333
REMARK  146  A    between atoms: _333  and  _334
REMARK  147  A    between atoms: _333  and  _336
REMARK  148  A    between atoms: _336  and  _337
REMARK  149  A    between atoms: _340  and  _342
REMARK  150  A    between atoms: _342  and  _343
REMARK  151  A    between atoms: _342  and  _345
REMARK  152  A    between atoms: _345  and  _346
REMARK  153  A    between atoms: _346  and  _347
REMARK  154  A    between atoms: _347  and  _348
REMARK  155  A    between atoms: _357  and  _359
REMARK  156  A    between atoms: _359  and  _360
REMARK  157  A    between atoms: _359  and  _362
REMARK  158  A    between atoms: _362  and  _363
REMARK  159  A    between atoms: _368  and  _370
REMARK  160  A    between atoms: _370  and  _371
REMARK  161  A    between atoms: _370  and  _373
REMARK  162  A    between atoms: _373  and  _374
REMARK  163  A    between atoms: _374  and  _375
REMARK  164  A    between atoms: _380  and  _382
REMARK  165  A    between atoms: _382  and  _383
REMARK  166  A    between atoms: _382  and  _385
REMARK  167  A    between atoms: _385  and  _386
REMARK  168  A    between atoms: _389  and  _391
REMARK  169  A    between atoms: _391  and  _392
REMARK  170  A    between atoms: _391  and  _394
REMARK  171  A    between atoms: _394  and  _395
REMARK  172  A    between atoms: _398  and  _400
REMARK  173  A    between atoms: _400  and  _401
REMARK  174  A    between atoms: _400  and  _403
REMARK  175  A    between atoms: _403  and  _404
REMARK  176  A    between atoms: _407  and  _409
REMARK  177  A    between atoms: _409  and  _410
REMARK  178  A    between atoms: _409  and  _412
REMARK  179  A    between atoms: _412  and  _413
REMARK  180  A    between atoms: _413  and  _414
REMARK  181  A    between atoms: _414  and  _415
REMARK  182  A    between atoms: _415  and  _416
REMARK  183  A    between atoms: _420  and  _422
REMARK  184  A    between atoms: _422  and  _423
REMARK  185  A    between atoms: _422  and  _425
REMARK  186  A    between atoms: _425  and  _426
REMARK  187  A    between atoms: _426  and  _427
REMARK  188  A    between atoms: _427  and  _428
REMARK  189  A    between atoms: _437  and  _439
REMARK  190  A    between atoms: _439  and  _440
REMARK  191  A    between atoms: _439  and  _442
REMARK  192  A    between atoms: _442  and  _443
REMARK  193  A    between atoms: _446  and  _448
REMARK  194  A    between atoms: _448  and  _449
REMARK  195  A    between atoms: _448  and  _451
REMARK  196  A    between atoms: _454  and  _456
REMARK  197  A    between atoms: _456  and  _457
REMARK  198  A    between atoms: _456  and  _459
REMARK  199  A    between atoms: _459  and  _460
REMARK  200  A    between atoms: _460  and  _461
REMARK  201  A    between atoms: _464  and  _466
REMARK  202  A    between atoms: _466  and  _467
REMARK  203  A    between atoms: _466  and  _469
REMARK  204  A    between atoms: _471  and  _473
REMARK  205  A    between atoms: _473  and  _474
REMARK  206  A    between atoms: _473  and  _476
REMARK  207  A    between atoms: _479  and  _481
REMARK  208  A    between atoms: _481  and  _482
REMARK  209  A    between atoms: _481  and  _484
REMARK  210  A    between atoms: _484  and  _485
REMARK  211  A    between atoms: _487  and  _489
REMARK  212  A    between atoms: _489  and  _490
REMARK  213  A    between atoms: _489  and  _492
REMARK  214  A    between atoms: _492  and  _493
REMARK  215  A    between atoms: _496  and  _498
REMARK  216  A    between atoms: _498  and  _499
REMARK  217  A    between atoms: _498  and  _501
REMARK  218  A    between atoms: _501  and  _502
REMARK  219  A    between atoms: _502  and  _503
REMARK  220  A    between atoms: _503  and  _504
REMARK  221  A    between atoms: _513  and  _515
REMARK  222  A    between atoms: _515  and  _516
REMARK  223  A    between atoms: _515  and  _518
REMARK  224  A    between atoms: _521  and  _523
REMARK  225  A    between atoms: _523  and  _524
REMARK  226  A    between atoms: _523  and  _526
REMARK  227  A    between atoms: _526  and  _527
REMARK  228  A    between atoms: _532  and  _533
REMARK                            x       y       z     vdW  Elec       q    Type
REMARK                         _______ _______ _______ _____ _____    ______ ____
ROOT
ATOM      1  O   HOH     1      26.080  45.573  12.980  0.00  0.00    +0.000 OA
ENDROOT
TORSDOF 0
REMARK  Name = ../refined-set-2016/2hnx/2hnx_pocket.pdb
REMARK  228 active torsions:
REMARK  status: ('A' for Active; 'I' for Inactive)
REMARK    1  A    between atoms: _1  and  _3
REMARK    2  A    between atoms: _3  and  _4
REMARK    3  A    between atoms: _3  and  _6
REMARK    4  A    between atoms: _6  and  _7
REMARK    5  A    between atoms: _10  and  _12
REMARK    6  A    between atoms: _12  and  _13
REMARK    7  A    between atoms: _12  and  _15
REMARK    8  A    between atoms: _15  and  _16
REMARK    9  A    between atoms: _18  and  _20
REMARK   10  A    between atoms: _20  and  _21
REMARK   11  A    between atoms: _20  and  _23
REMARK   12  A    between atoms: _23  and  _24
REMARK   13  A    between atoms: _26  and  _28
REMARK   14  A    between atoms: _28  and  _29
REMARK   15  A    between atoms: _28  and  _31
REMARK   16  A    between atoms: _31  and  _32
REMARK   17  A    between atoms: _38  and  _40
REMARK   18  A    between atoms: _40  and  _41
REMARK   19  A    between atoms: _40  and  _43
REMARK   20  A    between atoms: _43  and  _44
REMARK   21  A    between atoms: _49  and  _50
REMARK   22  A    between atoms: _52  and  _54
REMARK   23  A    between atoms: _54  and  _55
REMARK   24  A    between atoms: _54  and  _57
REMARK   25  A    between atoms: _57  and  _58
REMARK   26  A    between atoms: _58  and  _59
REMARK   27  A    between atoms: _61  and  _63
REMARK   28  A    between atoms: _63  and  _64
REMARK   29  A    between atoms: _63  and  _66
REMARK   30  A    between atoms: _66  and  _67
REMARK   31  A    between atoms: _67  and  _68
REMARK   32  A    between atoms: _68  and  _69
REMARK   33  A    between atoms: _69  and  _70
REMARK   34  A    between atoms: _74  and  _76
REMARK   35  A    between atoms: _76  and  _77
REMARK   36  A    between atoms: _76  and  _79
REMARK   37  A    between atoms: _82  and  _84
REMARK   38  A    between atoms: _84  and  _85
REMARK   39  A    between atoms: _84  and  _87
REMARK   40  A    between atoms: _90  and  _92
REMARK   41  A    between atoms: _92  and  _93
REMARK   42  A    between atoms: _95  and  _97
REMARK   43  A    between atoms: _97  and  _98
REMARK   44  A    between atoms: _97  and  _100
REMARK   45  A    between atoms: _100  and  _101
REMARK   46  A    between atoms: _104  and  _106
REMARK   47  A    between atoms: _106  and  _107
REMARK   48  A    between atoms: _106  and  _109
REMARK   49  A    between atoms: _109  and  _110
REMARK   50  A    between atoms: _110  and  _111
REMARK   51  A    between atoms: _111  and  _112
REMARK   52  A    between atoms: _121  and  _123
REMARK   53  A    between atoms: _123  and  _124
REMARK   54  A    between atoms: _123  and  _126
REMARK   55  A    between atoms: _129  and  _131
REMARK   56  A    between atoms: _131  and  _132
REMARK   57  A    between atoms: _135  and  _137
REMARK   58  A    between atoms: _137  and  _138
REMARK   59  A    between atoms: _140  and  _142
REMARK   60  A    between atoms: _142  and  _143
REMARK   61  A    between atoms: _142  and  _145
REMARK   62  A    between atoms: _145  and  _146
REMARK   63  A    between atoms: _146  and  _147
REMARK   64  A    between atoms: _149  and  _151
REMARK   65  A    between atoms: _151  and  _152
REMARK   66  A    between atoms: _155  and  _157
REMARK   67  A    between atoms: _157  and  _158
REMARK   68  A    between atoms: _157  and  _160
REMARK   69  A    between atoms: _160  and  _161
REMARK   70  A    between atoms: _161  and  _162
REMARK   71  A    between atoms: _162  and  _163
REMARK   72  A    between atoms: _163  and  _164
REMARK   73  A    between atoms: _169  and  _170
REMARK   74  A    between atoms: _175  and  _177
REMARK   75  A    between atoms: _177  and  _178
REMARK   76  A    between atoms: _177  and  _180
REMARK   77  A    between atoms: _180  and  _181
REMARK   78  A    between atoms: _186  and  _188
REMARK   79  A    between atoms: _188  and  _189
REMARK   80  A    between atoms: _188  and  _191
REMARK   81  A    between atoms: _191  and  _192
REMARK   82  A    between atoms: _192  and  _193
REMARK   83  A    between atoms: _195  and  _197
REMARK   84  A    between atoms: _197  and  _198
REMARK   85  A    between atoms: _197  and  _200
REMARK   86  A    between atoms: _200  and  _201
REMARK   87  A    between atoms: _204  and  _206
REMARK   88  A    between atoms: _206  and  _207
REMARK   89  A    between atoms: _206  and  _209
REMARK   90  A    between atoms: _209  and  _210
REMARK   91  A    between atoms: _210  and  _211
REMARK   92  A    between atoms: _211  and  _212
REMARK   93  A    between atoms: _212  and  _213
REMARK   94  A    between atoms: _217  and  _219
REMARK   95  A    between atoms: _219  and  _220
REMARK   96  A    between atoms: _219  and  _222
REMARK   97  A    between atoms: _222  and  _223
REMARK   98  A    between atoms: _225  and  _227
REMARK   99  A    between atoms: _227  and  _228
REMARK  100  A    between atoms: _227  and  _230
REMARK  101  A    between atoms: _230  and  _231
REMARK  102  A    between atoms: _231  and  _232
REMARK  103  A    between atoms: _235  and  _237
REMARK  104  A    between atoms: _237  and  _238
REMARK  105  A    between atoms: _237  and  _240
REMARK  106  A    between atoms: _240  and  _241
REMARK  107  A    between atoms: _243  and  _245
REMARK  108  A    between atoms: _245  and  _246
REMARK  109  A    between atoms: _245  and  _248
REMARK  110  A    between atoms: _248  and  _249
REMARK  111  A    between atoms: _252  and  _254
REMARK  112  A    between atoms: _254  and  _255
REMARK  113  A    between atoms: _254  and  _257
REMARK  114  A    between atoms: _257  and  _258
REMARK  115  A    between atoms: _264  and  _266
REMARK  116  A    between atoms: _266  and  _267
REMARK  117  A    between atoms: _266  and  _269
REMARK  118  A    between atoms: _269  and  _270
REMARK  119  A    between atoms: _270  and  _271
REMARK  120  A    between atoms: _271  and  _272
REMARK  121  A    between atoms: _272  and  _273
REMARK  122  A    between atoms: _277  and  _279
REMARK  123  A    between atoms: _279  and  _280
REMARK  124  A    between atoms: _279  and  _282
REMARK  125  A    between atoms: _282  and  _283
REMARK  126  A    between atoms: _288  and  _290
REMARK  127  A    between atoms: _290  and  _291
REMARK  128  A    between atoms: _290  and  _293
REMARK  129  A    between atoms: _293  and  _294
REMARK  130  A    between atoms: _297  and  _299
REMARK  131  A    between atoms: _299  and  _300
REMARK  132  A    between atoms: _299  and  _302
REMARK  133  A    between atoms: _302  and  _303
REMARK  134  A    between atoms: _303  and  _304
REMARK  135  A    between atoms: _307  and  _309
REMARK  136  A    between atoms: _309  and  _310
REMARK  137  A    between atoms: _309  and  _312
REMARK  138  A    between atoms: _312  and  _313
REMARK  139  A    between atoms: _316  and  _318
REMARK  140  A    between atoms: _318  and  _319
REMARK  141  A    between atoms: _322  and  _324
REMARK  142  A    between atoms: _324  and  _325
REMARK  143  A    between atoms: _324  and  _327
REMARK  144  A    between atoms: _327  and  _328
REMARK  145  A    between atoms: _331  and  _333
REMARK  146  A    between atoms: _333  and  _334
REMARK  147  A    between atoms: _333  and  _336
REMARK  148  A    between atoms: _336  and  _337
REMARK  149  A    between atoms: _340  and  _342
REMARK  150  A    between atoms: _342  and  _343
REMARK  151  A    between atoms: _342  and  _345
REMARK  152  A    between atoms: _345  and  _346
REMARK  153  A    between atoms: _346  and  _347
REMARK  154  A    between atoms: _347  and  _348
REMARK  155  A    between atoms: _357  and  _359
REMARK  156  A    between atoms: _359  and  _360
REMARK  157  A    between atoms: _359  and  _362
REMARK  158  A    between atoms: _362  and  _363
REMARK  159  A    between atoms: _368  and  _370
REMARK  160  A    between atoms: _370  and  _371
REMARK  161  A    between atoms: _370  and  _373
REMARK  162  A    between atoms: _373  and  _374
REMARK  163  A    between atoms: _374  and  _375
REMARK  164  A    between atoms: _380  and  _382
REMARK  165  A    between atoms: _382  and  _383
REMARK  166  A    between atoms: _382  and  _385
REMARK  167  A    between atoms: _385  and  _386
REMARK  168  A    between atoms: _389  and  _391
REMARK  169  A    between atoms: _391  and  _392
REMARK  170  A    between atoms: _391  and  _394
REMARK  171  A    between atoms: _394  and  _395
REMARK  172  A    between atoms: _398  and  _400
REMARK  173  A    between atoms: _400  and  _401
REMARK  174  A    between atoms: _400  and  _403
REMARK  175  A    between atoms: _403  and  _404
REMARK  176  A    between atoms: _407  and  _409
REMARK  177  A    between atoms: _409  and  _410
REMARK  178  A    between atoms: _409  and  _412
REMARK  179  A    between atoms: _412  and  _413
REMARK  180  A    between atoms: _413  and  _414
REMARK  181  A    between atoms: _414  and  _415
REMARK  182  A    between atoms: _415  and  _416
REMARK  183  A    between atoms: _420  and  _422
REMARK  184  A    between atoms: _422  and  _423
REMARK  185  A    between atoms: _422  and  _425
REMARK  186  A    between atoms: _425  and  _426
REMARK  187  A    between atoms: _426  and  _427
REMARK  188  A    between atoms: _427  and  _428
REMARK  189  A    between atoms: _437  and  _439
REMARK  190  A    between atoms: _439  and  _440
REMARK  191  A    between atoms: _439  and  _442
REMARK  192  A    between atoms: _442  and  _443
REMARK  193  A    between atoms: _446  and  _448
REMARK  194  A    between atoms: _448  and  _449
REMARK  195  A    between atoms: _448  and  _451
REMARK  196  A    between atoms: _454  and  _456
REMARK  197  A    between atoms: _456  and  _457
REMARK  198  A    between atoms: _456  and  _459
REMARK  199  A    between atoms: _459  and  _460
REMARK  200  A    between atoms: _460  and  _461
REMARK  201  A    between atoms: _464  and  _466
REMARK  202  A    between atoms: _466  and  _467
REMARK  203  A    between atoms: _466  and  _469
REMARK  204  A    between atoms: _471  and  _473
REMARK  205  A    between atoms: _473  and  _474
REMARK  206  A    between atoms: _473  and  _476
REMARK  207  A    between atoms: _479  and  _481
REMARK  208  A    between atoms: _481  and  _482
REMARK  209  A    between atoms: _481  and  _484
REMARK  210  A    between atoms: _484  and  _485
REMARK  211  A    between atoms: _487  and  _489
REMARK  212  A    between atoms: _489  and  _490
REMARK  213  A    between atoms: _489  and  _492
REMARK  214  A    between atoms: _492  and  _493
REMARK  215  A    between atoms: _496  and  _498
REMARK  216  A    between atoms: _498  and  _499
REMARK  217  A    between atoms: _498  and  _501
REMARK  218  A    between atoms: _501  and  _502
REMARK  219  A    between atoms: _502  and  _503
REMARK  220  A    between atoms: _503  and  _504
REMARK  221  A    between atoms: _513  and  _515
REMARK  222  A    between atoms: _515  and  _516
REMARK  223  A    between atoms: _515  and  _518
REMARK  224  A    between atoms: _521  and  _523
REMARK  225  A    between atoms: _523  and  _524
REMARK  226  A    between atoms: _523  and  _526
REMARK  227  A    between atoms: _526  and  _527
REMARK  228  A    between atoms: _532  and  _533
REMARK                            x       y       z     vdW  Elec       q    Type
REMARK                         _______ _______ _______ _____ _____    ______ ____
ROOT
ATOM      1  O   HOH     1      29.108  57.027  17.262  0.00  0.00    +0.000 OA
ENDROOT
TORSDOF 0
REMARK  Name = ../refined-set-2016/2hnx/2hnx_pocket.pdb
REMARK  228 active torsions:
REMARK  status: ('A' for Active; 'I' for Inactive)
REMARK    1  A    between atoms: _1  and  _3
REMARK    2  A    between atoms: _3  and  _4
REMARK    3  A    between atoms: _3  and  _6
REMARK    4  A    between atoms: _6  and  _7
REMARK    5  A    between atoms: _10  and  _12
REMARK    6  A    between atoms: _12  and  _13
REMARK    7  A    between atoms: _12  and  _15
REMARK    8  A    between atoms: _15  and  _16
REMARK    9  A    between atoms: _18  and  _20
REMARK   10  A    between atoms: _20  and  _21
REMARK   11  A    between atoms: _20  and  _23
REMARK   12  A    between atoms: _23  and  _24
REMARK   13  A    between atoms: _26  and  _28
REMARK   14  A    between atoms: _28  and  _29
REMARK   15  A    between atoms: _28  and  _31
REMARK   16  A    between atoms: _31  and  _32
REMARK   17  A    between atoms: _38  and  _40
REMARK   18  A    between atoms: _40  and  _41
REMARK   19  A    between atoms: _40  and  _43
REMARK   20  A    between atoms: _43  and  _44
REMARK   21  A    between atoms: _49  and  _50
REMARK   22  A    between atoms: _52  and  _54
REMARK   23  A    between atoms: _54  and  _55
REMARK   24  A    between atoms: _54  and  _57
REMARK   25  A    between atoms: _57  and  _58
REMARK   26  A    between atoms: _58  and  _59
REMARK   27  A    between atoms: _61  and  _63
REMARK   28  A    between atoms: _63  and  _64
REMARK   29  A    between atoms: _63  and  _66
REMARK   30  A    between atoms: _66  and  _67
REMARK   31  A    between atoms: _67  and  _68
REMARK   32  A    between atoms: _68  and  _69
REMARK   33  A    between atoms: _69  and  _70
REMARK   34  A    between atoms: _74  and  _76
REMARK   35  A    between atoms: _76  and  _77
REMARK   36  A    between atoms: _76  and  _79
REMARK   37  A    between atoms: _82  and  _84
REMARK   38  A    between atoms: _84  and  _85
REMARK   39  A    between atoms: _84  and  _87
REMARK   40  A    between atoms: _90  and  _92
REMARK   41  A    between atoms: _92  and  _93
REMARK   42  A    between atoms: _95  and  _97
REMARK   43  A    between atoms: _97  and  _98
REMARK   44  A    between atoms: _97  and  _100
REMARK   45  A    between atoms: _100  and  _101
REMARK   46  A    between atoms: _104  and  _106
REMARK   47  A    between atoms: _106  and  _107
REMARK   48  A    between atoms: _106  and  _109
REMARK   49  A    between atoms: _109  and  _110
REMARK   50  A    between atoms: _110  and  _111
REMARK   51  A    between atoms: _111  and  _112
REMARK   52  A    between atoms: _121  and  _123
REMARK   53  A    between atoms: _123  and  _124
REMARK   54  A    between atoms: _123  and  _126
REMARK   55  A    between atoms: _129  and  _131
REMARK   56  A    between atoms: _131  and  _132
REMARK   57  A    between atoms: _135  and  _137
REMARK   58  A    between atoms: _137  and  _138
REMARK   59  A    between atoms: _140  and  _142
REMARK   60  A    between atoms: _142  and  _143
REMARK   61  A    between atoms: _142  and  _145
REMARK   62  A    between atoms: _145  and  _146
REMARK   63  A    between atoms: _146  and  _147
REMARK   64  A    between atoms: _149  and  _151
REMARK   65  A    between atoms: _151  and  _152
REMARK   66  A    between atoms: _155  and  _157
REMARK   67  A    between atoms: _157  and  _158
REMARK   68  A    between atoms: _157  and  _160
REMARK   69  A    between atoms: _160  and  _161
REMARK   70  A    between atoms: _161  and  _162
REMARK   71  A    between atoms: _162  and  _163
REMARK   72  A    between atoms: _163  and  _164
REMARK   73  A    between atoms: _169  and  _170
REMARK   74  A    between atoms: _175  and  _177
REMARK   75  A    between atoms: _177  and  _178
REMARK   76  A    between atoms: _177  and  _180
REMARK   77  A    between atoms: _180  and  _181
REMARK   78  A    between atoms: _186  and  _188
REMARK   79  A    between atoms: _188  and  _189
REMARK   80  A    between atoms: _188  and  _191
REMARK   81  A    between atoms: _191  and  _192
REMARK   82  A    between atoms: _192  and  _193
REMARK   83  A    between atoms: _195  and  _197
REMARK   84  A    between atoms: _197  and  _198
REMARK   85  A    between atoms: _197  and  _200
REMARK   86  A    between atoms: _200  and  _201
REMARK   87  A    between atoms: _204  and  _206
REMARK   88  A    between atoms: _206  and  _207
REMARK   89  A    between atoms: _206  and  _209
REMARK   90  A    between atoms: _209  and  _210
REMARK   91  A    between atoms: _210  and  _211
REMARK   92  A    between atoms: _211  and  _212
REMARK   93  A    between atoms: _212  and  _213
REMARK   94  A    between atoms: _217  and  _219
REMARK   95  A    between atoms: _219  and  _220
REMARK   96  A    between atoms: _219  and  _222
REMARK   97  A    between atoms: _222  and  _223
REMARK   98  A    between atoms: _225  and  _227
REMARK   99  A    between atoms: _227  and  _228
REMARK  100  A    between atoms: _227  and  _230
REMARK  101  A    between atoms: _230  and  _231
REMARK  102  A    between atoms: _231  and  _232
REMARK  103  A    between atoms: _235  and  _237
REMARK  104  A    between atoms: _237  and  _238
REMARK  105  A    between atoms: _237  and  _240
REMARK  106  A    between atoms: _240  and  _241
REMARK  107  A    between atoms: _243  and  _245
REMARK  108  A    between atoms: _245  and  _246
REMARK  109  A    between atoms: _245  and  _248
REMARK  110  A    between atoms: _248  and  _249
REMARK  111  A    between atoms: _252  and  _254
REMARK  112  A    between atoms: _254  and  _255
REMARK  113  A    between atoms: _254  and  _257
REMARK  114  A    between atoms: _257  and  _258
REMARK  115  A    between atoms: _264  and  _266
REMARK  116  A    between atoms: _266  and  _267
REMARK  117  A    between atoms: _266  and  _269
REMARK  118  A    between atoms: _269  and  _270
REMARK  119  A    between atoms: _270  and  _271
REMARK  120  A    between atoms: _271  and  _272
REMARK  121  A    between atoms: _272  and  _273
REMARK  122  A    between atoms: _277  and  _279
REMARK  123  A    between atoms: _279  and  _280
REMARK  124  A    between atoms: _279  and  _282
REMARK  125  A    between atoms: _282  and  _283
REMARK  126  A    between atoms: _288  and  _290
REMARK  127  A    between atoms: _290  and  _291
REMARK  128  A    between atoms: _290  and  _293
REMARK  129  A    between atoms: _293  and  _294
REMARK  130  A    between atoms: _297  and  _299
REMARK  131  A    between atoms: _299  and  _300
REMARK  132  A    between atoms: _299  and  _302
REMARK  133  A    between atoms: _302  and  _303
REMARK  134  A    between atoms: _303  and  _304
REMARK  135  A    between atoms: _307  and  _309
REMARK  136  A    between atoms: _309  and  _310
REMARK  137  A    between atoms: _309  and  _312
REMARK  138  A    between atoms: _312  and  _313
REMARK  139  A    between atoms: _316  and  _318
REMARK  140  A    between atoms: _318  and  _319
REMARK  141  A    between atoms: _322  and  _324
REMARK  142  A    between atoms: _324  and  _325
REMARK  143  A    between atoms: _324  and  _327
REMARK  144  A    between atoms: _327  and  _328
REMARK  145  A    between atoms: _331  and  _333
REMARK  146  A    between atoms: _333  and  _334
REMARK  147  A    between atoms: _333  and  _336
REMARK  148  A    between atoms: _336  and  _337
REMARK  149  A    between atoms: _340  and  _342
REMARK  150  A    between atoms: _342  and  _343
REMARK  151  A    between atoms: _342  and  _345
REMARK  152  A    between atoms: _345  and  _346
REMARK  153  A    between atoms: _346  and  _347
REMARK  154  A    between atoms: _347  and  _348
REMARK  155  A    between atoms: _357  and  _359
REMARK  156  A    between atoms: _359  and  _360
REMARK  157  A    between atoms: _359  and  _362
REMARK  158  A    between atoms: _362  and  _363
REMARK  159  A    between atoms: _368  and  _370
REMARK  160  A    between atoms: _370  and  _371
REMARK  161  A    between atoms: _370  and  _373
REMARK  162  A    between atoms: _373  and  _374
REMARK  163  A    between atoms: _374  and  _375
REMARK  164  A    between atoms: _380  and  _382
REMARK  165  A    between atoms: _382  and  _383
REMARK  166  A    between atoms: _382  and  _385
REMARK  167  A    between atoms: _385  and  _386
REMARK  168  A    between atoms: _389  and  _391
REMARK  169  A    between atoms: _391  and  _392
REMARK  170  A    between atoms: _391  and  _394
REMARK  171  A    between atoms: _394  and  _395
REMARK  172  A    between atoms: _398  and  _400
REMARK  173  A    between atoms: _400  and  _401
REMARK  174  A    between atoms: _400  and  _403
REMARK  175  A    between atoms: _403  and  _404
REMARK  176  A    between atoms: _407  and  _409
REMARK  177  A    between atoms: _409  and  _410
REMARK  178  A    between atoms: _409  and  _412
REMARK  179  A    between atoms: _412  and  _413
REMARK  180  A    between atoms: _413  and  _414
REMARK  181  A    between atoms: _414  and  _415
REMARK  182  A    between atoms: _415  and  _416
REMARK  183  A    between atoms: _420  and  _422
REMARK  184  A    between atoms: _422  and  _423
REMARK  185  A    between atoms: _422  and  _425
REMARK  186  A    between atoms: _425  and  _426
REMARK  187  A    between atoms: _426  and  _427
REMARK  188  A    between atoms: _427  and  _428
REMARK  189  A    between atoms: _437  and  _439
REMARK  190  A    between atoms: _439  and  _440
REMARK  191  A    between atoms: _439  and  _442
REMARK  192  A    between atoms: _442  and  _443
REMARK  193  A    between atoms: _446  and  _448
REMARK  194  A    between atoms: _448  and  _449
REMARK  195  A    between atoms: _448  and  _451
REMARK  196  A    between atoms: _454  and  _456
REMARK  197  A    between atoms: _456  and  _457
REMARK  198  A    between atoms: _456  and  _459
REMARK  199  A    between atoms: _459  and  _460
REMARK  200  A    between atoms: _460  and  _461
REMARK  201  A    between atoms: _464  and  _466
REMARK  202  A    between atoms: _466  and  _467
REMARK  203  A    between atoms: _466  and  _469
REMARK  204  A    between atoms: _471  and  _473
REMARK  205  A    between atoms: _473  and  _474
REMARK  206  A    between atoms: _473  and  _476
REMARK  207  A    between atoms: _479  and  _481
REMARK  208  A    between atoms: _481  and  _482
REMARK  209  A    between atoms: _481  and  _484
REMARK  210  A    between atoms: _484  and  _485
REMARK  211  A    between atoms: _487  and  _489
REMARK  212  A    between atoms: _489  and  _490
REMARK  213  A    between atoms: _489  and  _492
REMARK  214  A    between atoms: _492  and  _493
REMARK  215  A    between atoms: _496  and  _498
REMARK  216  A    between atoms: _498  and  _499
REMARK  217  A    between atoms: _498  and  _501
REMARK  218  A    between atoms: _501  and  _502
REMARK  219  A    between atoms: _502  and  _503
REMARK  220  A    between atoms: _503  and  _504
REMARK  221  A    between atoms: _513  and  _515
REMARK  222  A    between atoms: _515  and  _516
REMARK  223  A    between atoms: _515  and  _518
REMARK  224  A    between atoms: _521  and  _523
REMARK  225  A    between atoms: _523  and  _524
REMARK  226  A    between atoms: _523  and  _526
REMARK  227  A    between atoms: _526  and  _527
REMARK  228  A    between atoms: _532  and  _533
REMARK                            x       y       z     vdW  Elec       q    Type
REMARK                         _______ _______ _______ _____ _____    ______ ____
ROOT
ATOM      1  O   HOH     1      26.174  42.504  19.560  0.00  0.00    +0.000 OA
ENDROOT
TORSDOF 0
REMARK  Name = ../refined-set-2016/2hnx/2hnx_pocket.pdb
REMARK  228 active torsions:
REMARK  status: ('A' for Active; 'I' for Inactive)
REMARK    1  A    between atoms: _1  and  _3
REMARK    2  A    between atoms: _3  and  _4
REMARK    3  A    between atoms: _3  and  _6
REMARK    4  A    between atoms: _6  and  _7
REMARK    5  A    between atoms: _10  and  _12
REMARK    6  A    between atoms: _12  and  _13
REMARK    7  A    between atoms: _12  and  _15
REMARK    8  A    between atoms: _15  and  _16
REMARK    9  A    between atoms: _18  and  _20
REMARK   10  A    between atoms: _20  and  _21
REMARK   11  A    between atoms: _20  and  _23
REMARK   12  A    between atoms: _23  and  _24
REMARK   13  A    between atoms: _26  and  _28
REMARK   14  A    between atoms: _28  and  _29
REMARK   15  A    between atoms: _28  and  _31
REMARK   16  A    between atoms: _31  and  _32
REMARK   17  A    between atoms: _38  and  _40
REMARK   18  A    between atoms: _40  and  _41
REMARK   19  A    between atoms: _40  and  _43
REMARK   20  A    between atoms: _43  and  _44
REMARK   21  A    between atoms: _49  and  _50
REMARK   22  A    between atoms: _52  and  _54
REMARK   23  A    between atoms: _54  and  _55
REMARK   24  A    between atoms: _54  and  _57
REMARK   25  A    between atoms: _57  and  _58
REMARK   26  A    between atoms: _58  and  _59
REMARK   27  A    between atoms: _61  and  _63
REMARK   28  A    between atoms: _63  and  _64
REMARK   29  A    between atoms: _63  and  _66
REMARK   30  A    between atoms: _66  and  _67
REMARK   31  A    between atoms: _67  and  _68
REMARK   32  A    between atoms: _68  and  _69
REMARK   33  A    between atoms: _69  and  _70
REMARK   34  A    between atoms: _74  and  _76
REMARK   35  A    between atoms: _76  and  _77
REMARK   36  A    between atoms: _76  and  _79
REMARK   37  A    between atoms: _82  and  _84
REMARK   38  A    between atoms: _84  and  _85
REMARK   39  A    between atoms: _84  and  _87
REMARK   40  A    between atoms: _90  and  _92
REMARK   41  A    between atoms: _92  and  _93
REMARK   42  A    between atoms: _95  and  _97
REMARK   43  A    between atoms: _97  and  _98
REMARK   44  A    between atoms: _97  and  _100
REMARK   45  A    between atoms: _100  and  _101
REMARK   46  A    between atoms: _104  and  _106
REMARK   47  A    between atoms: _106  and  _107
REMARK   48  A    between atoms: _106  and  _109
REMARK   49  A    between atoms: _109  and  _110
REMARK   50  A    between atoms: _110  and  _111
REMARK   51  A    between atoms: _111  and  _112
REMARK   52  A    between atoms: _121  and  _123
REMARK   53  A    between atoms: _123  and  _124
REMARK   54  A    between atoms: _123  and  _126
REMARK   55  A    between atoms: _129  and  _131
REMARK   56  A    between atoms: _131  and  _132
REMARK   57  A    between atoms: _135  and  _137
REMARK   58  A    between atoms: _137  and  _138
REMARK   59  A    between atoms: _140  and  _142
REMARK   60  A    between atoms: _142  and  _143
REMARK   61  A    between atoms: _142  and  _145
REMARK   62  A    between atoms: _145  and  _146
REMARK   63  A    between atoms: _146  and  _147
REMARK   64  A    between atoms: _149  and  _151
REMARK   65  A    between atoms: _151  and  _152
REMARK   66  A    between atoms: _155  and  _157
REMARK   67  A    between atoms: _157  and  _158
REMARK   68  A    between atoms: _157  and  _160
REMARK   69  A    between atoms: _160  and  _161
REMARK   70  A    between atoms: _161  and  _162
REMARK   71  A    between atoms: _162  and  _163
REMARK   72  A    between atoms: _163  and  _164
REMARK   73  A    between atoms: _169  and  _170
REMARK   74  A    between atoms: _175  and  _177
REMARK   75  A    between atoms: _177  and  _178
REMARK   76  A    between atoms: _177  and  _180
REMARK   77  A    between atoms: _180  and  _181
REMARK   78  A    between atoms: _186  and  _188
REMARK   79  A    between atoms: _188  and  _189
REMARK   80  A    between atoms: _188  and  _191
REMARK   81  A    between atoms: _191  and  _192
REMARK   82  A    between atoms: _192  and  _193
REMARK   83  A    between atoms: _195  and  _197
REMARK   84  A    between atoms: _197  and  _198
REMARK   85  A    between atoms: _197  and  _200
REMARK   86  A    between atoms: _200  and  _201
REMARK   87  A    between atoms: _204  and  _206
REMARK   88  A    between atoms: _206  and  _207
REMARK   89  A    between atoms: _206  and  _209
REMARK   90  A    between atoms: _209  and  _210
REMARK   91  A    between atoms: _210  and  _211
REMARK   92  A    between atoms: _211  and  _212
REMARK   93  A    between atoms: _212  and  _213
REMARK   94  A    between atoms: _217  and  _219
REMARK   95  A    between atoms: _219  and  _220
REMARK   96  A    between atoms: _219  and  _222
REMARK   97  A    between atoms: _222  and  _223
REMARK   98  A    between atoms: _225  and  _227
REMARK   99  A    between atoms: _227  and  _228
REMARK  100  A    between atoms: _227  and  _230
REMARK  101  A    between atoms: _230  and  _231
REMARK  102  A    between atoms: _231  and  _232
REMARK  103  A    between atoms: _235  and  _237
REMARK  104  A    between atoms: _237  and  _238
REMARK  105  A    between atoms: _237  and  _240
REMARK  106  A    between atoms: _240  and  _241
REMARK  107  A    between atoms: _243  and  _245
REMARK  108  A    between atoms: _245  and  _246
REMARK  109  A    between atoms: _245  and  _248
REMARK  110  A    between atoms: _248  and  _249
REMARK  111  A    between atoms: _252  and  _254
REMARK  112  A    between atoms: _254  and  _255
REMARK  113  A    between atoms: _254  and  _257
REMARK  114  A    between atoms: _257  and  _258
REMARK  115  A    between atoms: _264  and  _266
REMARK  116  A    between atoms: _266  and  _267
REMARK  117  A    between atoms: _266  and  _269
REMARK  118  A    between atoms: _269  and  _270
REMARK  119  A    between atoms: _270  and  _271
REMARK  120  A    between atoms: _271  and  _272
REMARK  121  A    between atoms: _272  and  _273
REMARK  122  A    between atoms: _277  and  _279
REMARK  123  A    between atoms: _279  and  _280
REMARK  124  A    between atoms: _279  and  _282
REMARK  125  A    between atoms: _282  and  _283
REMARK  126  A    between atoms: _288  and  _290
REMARK  127  A    between atoms: _290  and  _291
REMARK  128  A    between atoms: _290  and  _293
REMARK  129  A    between atoms: _293  and  _294
REMARK  130  A    between atoms: _297  and  _299
REMARK  131  A    between atoms: _299  and  _300
REMARK  132  A    between atoms: _299  and  _302
REMARK  133  A    between atoms: _302  and  _303
REMARK  134  A    between atoms: _303  and  _304
REMARK  135  A    between atoms: _307  and  _309
REMARK  136  A    between atoms: _309  and  _310
REMARK  137  A    between atoms: _309  and  _312
REMARK  138  A    between atoms: _312  and  _313
REMARK  139  A    between atoms: _316  and  _318
REMARK  140  A    between atoms: _318  and  _319
REMARK  141  A    between atoms: _322  and  _324
REMARK  142  A    between atoms: _324  and  _325
REMARK  143  A    between atoms: _324  and  _327
REMARK  144  A    between atoms: _327  and  _328
REMARK  145  A    between atoms: _331  and  _333
REMARK  146  A    between atoms: _333  and  _334
REMARK  147  A    between atoms: _333  and  _336
REMARK  148  A    between atoms: _336  and  _337
REMARK  149  A    between atoms: _340  and  _342
REMARK  150  A    between atoms: _342  and  _343
REMARK  151  A    between atoms: _342  and  _345
REMARK  152  A    between atoms: _345  and  _346
REMARK  153  A    between atoms: _346  and  _347
REMARK  154  A    between atoms: _347  and  _348
REMARK  155  A    between atoms: _357  and  _359
REMARK  156  A    between atoms: _359  and  _360
REMARK  157  A    between atoms: _359  and  _362
REMARK  158  A    between atoms: _362  and  _363
REMARK  159  A    between atoms: _368  and  _370
REMARK  160  A    between atoms: _370  and  _371
REMARK  161  A    between atoms: _370  and  _373
REMARK  162  A    between atoms: _373  and  _374
REMARK  163  A    between atoms: _374  and  _375
REMARK  164  A    between atoms: _380  and  _382
REMARK  165  A    between atoms: _382  and  _383
REMARK  166  A    between atoms: _382  and  _385
REMARK  167  A    between atoms: _385  and  _386
REMARK  168  A    between atoms: _389  and  _391
REMARK  169  A    between atoms: _391  and  _392
REMARK  170  A    between atoms: _391  and  _394
REMARK  171  A    between atoms: _394  and  _395
REMARK  172  A    between atoms: _398  and  _400
REMARK  173  A    between atoms: _400  and  _401
REMARK  174  A    between atoms: _400  and  _403
REMARK  175  A    between atoms: _403  and  _404
REMARK  176  A    between atoms: _407  and  _409
REMARK  177  A    between atoms: _409  and  _410
REMARK  178  A    between atoms: _409  and  _412
REMARK  179  A    between atoms: _412  and  _413
REMARK  180  A    between atoms: _413  and  _414
REMARK  181  A    between atoms: _414  and  _415
REMARK  182  A    between atoms: _415  and  _416
REMARK  183  A    between atoms: _420  and  _422
REMARK  184  A    between atoms: _422  and  _423
REMARK  185  A    between atoms: _422  and  _425
REMARK  186  A    between atoms: _425  and  _426
REMARK  187  A    between atoms: _426  and  _427
REMARK  188  A    between atoms: _427  and  _428
REMARK  189  A    between atoms: _437  and  _439
REMARK  190  A    between atoms: _439  and  _440
REMARK  191  A    between atoms: _439  and  _442
REMARK  192  A    between atoms: _442  and  _443
REMARK  193  A    between atoms: _446  and  _448
REMARK  194  A    between atoms: _448  and  _449
REMARK  195  A    between atoms: _448  and  _451
REMARK  196  A    between atoms: _454  and  _456
REMARK  197  A    between atoms: _456  and  _457
REMARK  198  A    between atoms: _456  and  _459
REMARK  199  A    between atoms: _459  and  _460
REMARK  200  A    between atoms: _460  and  _461
REMARK  201  A    between atoms: _464  and  _466
REMARK  202  A    between atoms: _466  and  _467
REMARK  203  A    between atoms: _466  and  _469
REMARK  204  A    between atoms: _471  and  _473
REMARK  205  A    between atoms: _473  and  _474
REMARK  206  A    between atoms: _473  and  _476
REMARK  207  A    between atoms: _479  and  _481
REMARK  208  A    between atoms: _481  and  _482
REMARK  209  A    between atoms: _481  and  _484
REMARK  210  A    between atoms: _484  and  _485
REMARK  211  A    between atoms: _487  and  _489
REMARK  212  A    between atoms: _489  and  _490
REMARK  213  A    between atoms: _489  and  _492
REMARK  214  A    between atoms: _492  and  _493
REMARK  215  A    between atoms: _496  and  _498
REMARK  216  A    between atoms: _498  and  _499
REMARK  217  A    between atoms: _498  and  _501
REMARK  218  A    between atoms: _501  and  _502
REMARK  219  A    between atoms: _502  and  _503
REMARK  220  A    between atoms: _503  and  _504
REMARK  221  A    between atoms: _513  and  _515
REMARK  222  A    between atoms: _515  and  _516
REMARK  223  A    between atoms: _515  and  _518
REMARK  224  A    between atoms: _521  and  _523
REMARK  225  A    between atoms: _523  and  _524
REMARK  226  A    between atoms: _523  and  _526
REMARK  227  A    between atoms: _526  and  _527
REMARK  228  A    between atoms: _532  and  _533
REMARK                            x       y       z     vdW  Elec       q    Type
REMARK                         _______ _______ _______ _____ _____    ______ ____
ROOT
ATOM      1  O   HOH     1      28.197  45.149  15.934  0.00  0.00    +0.000 OA
ENDROOT
TORSDOF 0
REMARK  Name = ../refined-set-2016/2hnx/2hnx_pocket.pdb
REMARK  228 active torsions:
REMARK  status: ('A' for Active; 'I' for Inactive)
REMARK    1  A    between atoms: _1  and  _3
REMARK    2  A    between atoms: _3  and  _4
REMARK    3  A    between atoms: _3  and  _6
REMARK    4  A    between atoms: _6  and  _7
REMARK    5  A    between atoms: _10  and  _12
REMARK    6  A    between atoms: _12  and  _13
REMARK    7  A    between atoms: _12  and  _15
REMARK    8  A    between atoms: _15  and  _16
REMARK    9  A    between atoms: _18  and  _20
REMARK   10  A    between atoms: _20  and  _21
REMARK   11  A    between atoms: _20  and  _23
REMARK   12  A    between atoms: _23  and  _24
REMARK   13  A    between atoms: _26  and  _28
REMARK   14  A    between atoms: _28  and  _29
REMARK   15  A    between atoms: _28  and  _31
REMARK   16  A    between atoms: _31  and  _32
REMARK   17  A    between atoms: _38  and  _40
REMARK   18  A    between atoms: _40  and  _41
REMARK   19  A    between atoms: _40  and  _43
REMARK   20  A    between atoms: _43  and  _44
REMARK   21  A    between atoms: _49  and  _50
REMARK   22  A    between atoms: _52  and  _54
REMARK   23  A    between atoms: _54  and  _55
REMARK   24  A    between atoms: _54  and  _57
REMARK   25  A    between atoms: _57  and  _58
REMARK   26  A    between atoms: _58  and  _59
REMARK   27  A    between atoms: _61  and  _63
REMARK   28  A    between atoms: _63  and  _64
REMARK   29  A    between atoms: _63  and  _66
REMARK   30  A    between atoms: _66  and  _67
REMARK   31  A    between atoms: _67  and  _68
REMARK   32  A    between atoms: _68  and  _69
REMARK   33  A    between atoms: _69  and  _70
REMARK   34  A    between atoms: _74  and  _76
REMARK   35  A    between atoms: _76  and  _77
REMARK   36  A    between atoms: _76  and  _79
REMARK   37  A    between atoms: _82  and  _84
REMARK   38  A    between atoms: _84  and  _85
REMARK   39  A    between atoms: _84  and  _87
REMARK   40  A    between atoms: _90  and  _92
REMARK   41  A    between atoms: _92  and  _93
REMARK   42  A    between atoms: _95  and  _97
REMARK   43  A    between atoms: _97  and  _98
REMARK   44  A    between atoms: _97  and  _100
REMARK   45  A    between atoms: _100  and  _101
REMARK   46  A    between atoms: _104  and  _106
REMARK   47  A    between atoms: _106  and  _107
REMARK   48  A    between atoms: _106  and  _109
REMARK   49  A    between atoms: _109  and  _110
REMARK   50  A    between atoms: _110  and  _111
REMARK   51  A    between atoms: _111  and  _112
REMARK   52  A    between atoms: _121  and  _123
REMARK   53  A    between atoms: _123  and  _124
REMARK   54  A    between atoms: _123  and  _126
REMARK   55  A    between atoms: _129  and  _131
REMARK   56  A    between atoms: _131  and  _132
REMARK   57  A    between atoms: _135  and  _137
REMARK   58  A    between atoms: _137  and  _138
REMARK   59  A    between atoms: _140  and  _142
REMARK   60  A    between atoms: _142  and  _143
REMARK   61  A    between atoms: _142  and  _145
REMARK   62  A    between atoms: _145  and  _146
REMARK   63  A    between atoms: _146  and  _147
REMARK   64  A    between atoms: _149  and  _151
REMARK   65  A    between atoms: _151  and  _152
REMARK   66  A    between atoms: _155  and  _157
REMARK   67  A    between atoms: _157  and  _158
REMARK   68  A    between atoms: _157  and  _160
REMARK   69  A    between atoms: _160  and  _161
REMARK   70  A    between atoms: _161  and  _162
REMARK   71  A    between atoms: _162  and  _163
REMARK   72  A    between atoms: _163  and  _164
REMARK   73  A    between atoms: _169  and  _170
REMARK   74  A    between atoms: _175  and  _177
REMARK   75  A    between atoms: _177  and  _178
REMARK   76  A    between atoms: _177  and  _180
REMARK   77  A    between atoms: _180  and  _181
REMARK   78  A    between atoms: _186  and  _188
REMARK   79  A    between atoms: _188  and  _189
REMARK   80  A    between atoms: _188  and  _191
REMARK   81  A    between atoms: _191  and  _192
REMARK   82  A    between atoms: _192  and  _193
REMARK   83  A    between atoms: _195  and  _197
REMARK   84  A    between atoms: _197  and  _198
REMARK   85  A    between atoms: _197  and  _200
REMARK   86  A    between atoms: _200  and  _201
REMARK   87  A    between atoms: _204  and  _206
REMARK   88  A    between atoms: _206  and  _207
REMARK   89  A    between atoms: _206  and  _209
REMARK   90  A    between atoms: _209  and  _210
REMARK   91  A    between atoms: _210  and  _211
REMARK   92  A    between atoms: _211  and  _212
REMARK   93  A    between atoms: _212  and  _213
REMARK   94  A    between atoms: _217  and  _219
REMARK   95  A    between atoms: _219  and  _220
REMARK   96  A    between atoms: _219  and  _222
REMARK   97  A    between atoms: _222  and  _223
REMARK   98  A    between atoms: _225  and  _227
REMARK   99  A    between atoms: _227  and  _228
REMARK  100  A    between atoms: _227  and  _230
REMARK  101  A    between atoms: _230  and  _231
REMARK  102  A    between atoms: _231  and  _232
REMARK  103  A    between atoms: _235  and  _237
REMARK  104  A    between atoms: _237  and  _238
REMARK  105  A    between atoms: _237  and  _240
REMARK  106  A    between atoms: _240  and  _241
REMARK  107  A    between atoms: _243  and  _245
REMARK  108  A    between atoms: _245  and  _246
REMARK  109  A    between atoms: _245  and  _248
REMARK  110  A    between atoms: _248  and  _249
REMARK  111  A    between atoms: _252  and  _254
REMARK  112  A    between atoms: _254  and  _255
REMARK  113  A    between atoms: _254  and  _257
REMARK  114  A    between atoms: _257  and  _258
REMARK  115  A    between atoms: _264  and  _266
REMARK  116  A    between atoms: _266  and  _267
REMARK  117  A    between atoms: _266  and  _269
REMARK  118  A    between atoms: _269  and  _270
REMARK  119  A    between atoms: _270  and  _271
REMARK  120  A    between atoms: _271  and  _272
REMARK  121  A    between atoms: _272  and  _273
REMARK  122  A    between atoms: _277  and  _279
REMARK  123  A    between atoms: _279  and  _280
REMARK  124  A    between atoms: _279  and  _282
REMARK  125  A    between atoms: _282  and  _283
REMARK  126  A    between atoms: _288  and  _290
REMARK  127  A    between atoms: _290  and  _291
REMARK  128  A    between atoms: _290  and  _293
REMARK  129  A    between atoms: _293  and  _294
REMARK  130  A    between atoms: _297  and  _299
REMARK  131  A    between atoms: _299  and  _300
REMARK  132  A    between atoms: _299  and  _302
REMARK  133  A    between atoms: _302  and  _303
REMARK  134  A    between atoms: _303  and  _304
REMARK  135  A    between atoms: _307  and  _309
REMARK  136  A    between atoms: _309  and  _310
REMARK  137  A    between atoms: _309  and  _312
REMARK  138  A    between atoms: _312  and  _313
REMARK  139  A    between atoms: _316  and  _318
REMARK  140  A    between atoms: _318  and  _319
REMARK  141  A    between atoms: _322  and  _324
REMARK  142  A    between atoms: _324  and  _325
REMARK  143  A    between atoms: _324  and  _327
REMARK  144  A    between atoms: _327  and  _328
REMARK  145  A    between atoms: _331  and  _333
REMARK  146  A    between atoms: _333  and  _334
REMARK  147  A    between atoms: _333  and  _336
REMARK  148  A    between atoms: _336  and  _337
REMARK  149  A    between atoms: _340  and  _342
REMARK  150  A    between atoms: _342  and  _343
REMARK  151  A    between atoms: _342  and  _345
REMARK  152  A    between atoms: _345  and  _346
REMARK  153  A    between atoms: _346  and  _347
REMARK  154  A    between atoms: _347  and  _348
REMARK  155  A    between atoms: _357  and  _359
REMARK  156  A    between atoms: _359  and  _360
REMARK  157  A    between atoms: _359  and  _362
REMARK  158  A    between atoms: _362  and  _363
REMARK  159  A    between atoms: _368  and  _370
REMARK  160  A    between atoms: _370  and  _371
REMARK  161  A    between atoms: _370  and  _373
REMARK  162  A    between atoms: _373  and  _374
REMARK  163  A    between atoms: _374  and  _375
REMARK  164  A    between atoms: _380  and  _382
REMARK  165  A    between atoms: _382  and  _383
REMARK  166  A    between atoms: _382  and  _385
REMARK  167  A    between atoms: _385  and  _386
REMARK  168  A    between atoms: _389  and  _391
REMARK  169  A    between atoms: _391  and  _392
REMARK  170  A    between atoms: _391  and  _394
REMARK  171  A    between atoms: _394  and  _395
REMARK  172  A    between atoms: _398  and  _400
REMARK  173  A    between atoms: _400  and  _401
REMARK  174  A    between atoms: _400  and  _403
REMARK  175  A    between atoms: _403  and  _404
REMARK  176  A    between atoms: _407  and  _409
REMARK  177  A    between atoms: _409  and  _410
REMARK  178  A    between atoms: _409  and  _412
REMARK  179  A    between atoms: _412  and  _413
REMARK  180  A    between atoms: _413  and  _414
REMARK  181  A    between atoms: _414  and  _415
REMARK  182  A    between atoms: _415  and  _416
REMARK  183  A    between atoms: _420  and  _422
REMARK  184  A    between atoms: _422  and  _423
REMARK  185  A    between atoms: _422  and  _425
REMARK  186  A    between atoms: _425  and  _426
REMARK  187  A    between atoms: _426  and  _427
REMARK  188  A    between atoms: _427  and  _428
REMARK  189  A    between atoms: _437  and  _439
REMARK  190  A    between atoms: _439  and  _440
REMARK  191  A    between atoms: _439  and  _442
REMARK  192  A    between atoms: _442  and  _443
REMARK  193  A    between atoms: _446  and  _448
REMARK  194  A    between atoms: _448  and  _449
REMARK  195  A    between atoms: _448  and  _451
REMARK  196  A    between atoms: _454  and  _456
REMARK  197  A    between atoms: _456  and  _457
REMARK  198  A    between atoms: _456  and  _459
REMARK  199  A    between atoms: _459  and  _460
REMARK  200  A    between atoms: _460  and  _461
REMARK  201  A    between atoms: _464  and  _466
REMARK  202  A    between atoms: _466  and  _467
REMARK  203  A    between atoms: _466  and  _469
REMARK  204  A    between atoms: _471  and  _473
REMARK  205  A    between atoms: _473  and  _474
REMARK  206  A    between atoms: _473  and  _476
REMARK  207  A    between atoms: _479  and  _481
REMARK  208  A    between atoms: _481  and  _482
REMARK  209  A    between atoms: _481  and  _484
REMARK  210  A    between atoms: _484  and  _485
REMARK  211  A    between atoms: _487  and  _489
REMARK  212  A    between atoms: _489  and  _490
REMARK  213  A    between atoms: _489  and  _492
REMARK  214  A    between atoms: _492  and  _493
REMARK  215  A    between atoms: _496  and  _498
REMARK  216  A    between atoms: _498  and  _499
REMARK  217  A    between atoms: _498  and  _501
REMARK  218  A    between atoms: _501  and  _502
REMARK  219  A    between atoms: _502  and  _503
REMARK  220  A    between atoms: _503  and  _504
REMARK  221  A    between atoms: _513  and  _515
REMARK  222  A    between atoms: _515  and  _516
REMARK  223  A    between atoms: _515  and  _518
REMARK  224  A    between atoms: _521  and  _523
REMARK  225  A    between atoms: _523  and  _524
REMARK  226  A    between atoms: _523  and  _526
REMARK  227  A    between atoms: _526  and  _527
REMARK  228  A    between atoms: _532  and  _533
REMARK                            x       y       z     vdW  Elec       q    Type
REMARK                         _______ _______ _______ _____ _____    ______ ____
ROOT
ATOM      1  O   HOH     1      32.286  45.330  18.078  0.00  0.00    +0.000 OA
ENDROOT
TORSDOF 0
REMARK  Name = ../refined-set-2016/2hnx/2hnx_pocket.pdb
REMARK  228 active torsions:
REMARK  status: ('A' for Active; 'I' for Inactive)
REMARK    1  A    between atoms: _1  and  _3
REMARK    2  A    between atoms: _3  and  _4
REMARK    3  A    between atoms: _3  and  _6
REMARK    4  A    between atoms: _6  and  _7
REMARK    5  A    between atoms: _10  and  _12
REMARK    6  A    between atoms: _12  and  _13
REMARK    7  A    between atoms: _12  and  _15
REMARK    8  A    between atoms: _15  and  _16
REMARK    9  A    between atoms: _18  and  _20
REMARK   10  A    between atoms: _20  and  _21
REMARK   11  A    between atoms: _20  and  _23
REMARK   12  A    between atoms: _23  and  _24
REMARK   13  A    between atoms: _26  and  _28
REMARK   14  A    between atoms: _28  and  _29
REMARK   15  A    between atoms: _28  and  _31
REMARK   16  A    between atoms: _31  and  _32
REMARK   17  A    between atoms: _38  and  _40
REMARK   18  A    between atoms: _40  and  _41
REMARK   19  A    between atoms: _40  and  _43
REMARK   20  A    between atoms: _43  and  _44
REMARK   21  A    between atoms: _49  and  _50
REMARK   22  A    between atoms: _52  and  _54
REMARK   23  A    between atoms: _54  and  _55
REMARK   24  A    between atoms: _54  and  _57
REMARK   25  A    between atoms: _57  and  _58
REMARK   26  A    between atoms: _58  and  _59
REMARK   27  A    between atoms: _61  and  _63
REMARK   28  A    between atoms: _63  and  _64
REMARK   29  A    between atoms: _63  and  _66
REMARK   30  A    between atoms: _66  and  _67
REMARK   31  A    between atoms: _67  and  _68
REMARK   32  A    between atoms: _68  and  _69
REMARK   33  A    between atoms: _69  and  _70
REMARK   34  A    between atoms: _74  and  _76
REMARK   35  A    between atoms: _76  and  _77
REMARK   36  A    between atoms: _76  and  _79
REMARK   37  A    between atoms: _82  and  _84
REMARK   38  A    between atoms: _84  and  _85
REMARK   39  A    between atoms: _84  and  _87
REMARK   40  A    between atoms: _90  and  _92
REMARK   41  A    between atoms: _92  and  _93
REMARK   42  A    between atoms: _95  and  _97
REMARK   43  A    between atoms: _97  and  _98
REMARK   44  A    between atoms: _97  and  _100
REMARK   45  A    between atoms: _100  and  _101
REMARK   46  A    between atoms: _104  and  _106
REMARK   47  A    between atoms: _106  and  _107
REMARK   48  A    between atoms: _106  and  _109
REMARK   49  A    between atoms: _109  and  _110
REMARK   50  A    between atoms: _110  and  _111
REMARK   51  A    between atoms: _111  and  _112
REMARK   52  A    between atoms: _121  and  _123
REMARK   53  A    between atoms: _123  and  _124
REMARK   54  A    between atoms: _123  and  _126
REMARK   55  A    between atoms: _129  and  _131
REMARK   56  A    between atoms: _131  and  _132
REMARK   57  A    between atoms: _135  and  _137
REMARK   58  A    between atoms: _137  and  _138
REMARK   59  A    between atoms: _140  and  _142
REMARK   60  A    between atoms: _142  and  _143
REMARK   61  A    between atoms: _142  and  _145
REMARK   62  A    between atoms: _145  and  _146
REMARK   63  A    between atoms: _146  and  _147
REMARK   64  A    between atoms: _149  and  _151
REMARK   65  A    between atoms: _151  and  _152
REMARK   66  A    between atoms: _155  and  _157
REMARK   67  A    between atoms: _157  and  _158
REMARK   68  A    between atoms: _157  and  _160
REMARK   69  A    between atoms: _160  and  _161
REMARK   70  A    between atoms: _161  and  _162
REMARK   71  A    between atoms: _162  and  _163
REMARK   72  A    between atoms: _163  and  _164
REMARK   73  A    between atoms: _169  and  _170
REMARK   74  A    between atoms: _175  and  _177
REMARK   75  A    between atoms: _177  and  _178
REMARK   76  A    between atoms: _177  and  _180
REMARK   77  A    between atoms: _180  and  _181
REMARK   78  A    between atoms: _186  and  _188
REMARK   79  A    between atoms: _188  and  _189
REMARK   80  A    between atoms: _188  and  _191
REMARK   81  A    between atoms: _191  and  _192
REMARK   82  A    between atoms: _192  and  _193
REMARK   83  A    between atoms: _195  and  _197
REMARK   84  A    between atoms: _197  and  _198
REMARK   85  A    between atoms: _197  and  _200
REMARK   86  A    between atoms: _200  and  _201
REMARK   87  A    between atoms: _204  and  _206
REMARK   88  A    between atoms: _206  and  _207
REMARK   89  A    between atoms: _206  and  _209
REMARK   90  A    between atoms: _209  and  _210
REMARK   91  A    between atoms: _210  and  _211
REMARK   92  A    between atoms: _211  and  _212
REMARK   93  A    between atoms: _212  and  _213
REMARK   94  A    between atoms: _217  and  _219
REMARK   95  A    between atoms: _219  and  _220
REMARK   96  A    between atoms: _219  and  _222
REMARK   97  A    between atoms: _222  and  _223
REMARK   98  A    between atoms: _225  and  _227
REMARK   99  A    between atoms: _227  and  _228
REMARK  100  A    between atoms: _227  and  _230
REMARK  101  A    between atoms: _230  and  _231
REMARK  102  A    between atoms: _231  and  _232
REMARK  103  A    between atoms: _235  and  _237
REMARK  104  A    between atoms: _237  and  _238
REMARK  105  A    between atoms: _237  and  _240
REMARK  106  A    between atoms: _240  and  _241
REMARK  107  A    between atoms: _243  and  _245
REMARK  108  A    between atoms: _245  and  _246
REMARK  109  A    between atoms: _245  and  _248
REMARK  110  A    between atoms: _248  and  _249
REMARK  111  A    between atoms: _252  and  _254
REMARK  112  A    between atoms: _254  and  _255
REMARK  113  A    between atoms: _254  and  _257
REMARK  114  A    between atoms: _257  and  _258
REMARK  115  A    between atoms: _264  and  _266
REMARK  116  A    between atoms: _266  and  _267
REMARK  117  A    between atoms: _266  and  _269
REMARK  118  A    between atoms: _269  and  _270
REMARK  119  A    between atoms: _270  and  _271
REMARK  120  A    between atoms: _271  and  _272
REMARK  121  A    between atoms: _272  and  _273
REMARK  122  A    between atoms: _277  and  _279
REMARK  123  A    between atoms: _279  and  _280
REMARK  124  A    between atoms: _279  and  _282
REMARK  125  A    between atoms: _282  and  _283
REMARK  126  A    between atoms: _288  and  _290
REMARK  127  A    between atoms: _290  and  _291
REMARK  128  A    between atoms: _290  and  _293
REMARK  129  A    between atoms: _293  and  _294
REMARK  130  A    between atoms: _297  and  _299
REMARK  131  A    between atoms: _299  and  _300
REMARK  132  A    between atoms: _299  and  _302
REMARK  133  A    between atoms: _302  and  _303
REMARK  134  A    between atoms: _303  and  _304
REMARK  135  A    between atoms: _307  and  _309
REMARK  136  A    between atoms: _309  and  _310
REMARK  137  A    between atoms: _309  and  _312
REMARK  138  A    between atoms: _312  and  _313
REMARK  139  A    between atoms: _316  and  _318
REMARK  140  A    between atoms: _318  and  _319
REMARK  141  A    between atoms: _322  and  _324
REMARK  142  A    between atoms: _324  and  _325
REMARK  143  A    between atoms: _324  and  _327
REMARK  144  A    between atoms: _327  and  _328
REMARK  145  A    between atoms: _331  and  _333
REMARK  146  A    between atoms: _333  and  _334
REMARK  147  A    between atoms: _333  and  _336
REMARK  148  A    between atoms: _336  and  _337
REMARK  149  A    between atoms: _340  and  _342
REMARK  150  A    between atoms: _342  and  _343
REMARK  151  A    between atoms: _342  and  _345
REMARK  152  A    between atoms: _345  and  _346
REMARK  153  A    between atoms: _346  and  _347
REMARK  154  A    between atoms: _347  and  _348
REMARK  155  A    between atoms: _357  and  _359
REMARK  156  A    between atoms: _359  and  _360
REMARK  157  A    between atoms: _359  and  _362
REMARK  158  A    between atoms: _362  and  _363
REMARK  159  A    between atoms: _368  and  _370
REMARK  160  A    between atoms: _370  and  _371
REMARK  161  A    between atoms: _370  and  _373
REMARK  162  A    between atoms: _373  and  _374
REMARK  163  A    between atoms: _374  and  _375
REMARK  164  A    between atoms: _380  and  _382
REMARK  165  A    between atoms: _382  and  _383
REMARK  166  A    between atoms: _382  and  _385
REMARK  167  A    between atoms: _385  and  _386
REMARK  168  A    between atoms: _389  and  _391
REMARK  169  A    between atoms: _391  and  _392
REMARK  170  A    between atoms: _391  and  _394
REMARK  171  A    between atoms: _394  and  _395
REMARK  172  A    between atoms: _398  and  _400
REMARK  173  A    between atoms: _400  and  _401
REMARK  174  A    between atoms: _400  and  _403
REMARK  175  A    between atoms: _403  and  _404
REMARK  176  A    between atoms: _407  and  _409
REMARK  177  A    between atoms: _409  and  _410
REMARK  178  A    between atoms: _409  and  _412
REMARK  179  A    between atoms: _412  and  _413
REMARK  180  A    between atoms: _413  and  _414
REMARK  181  A    between atoms: _414  and  _415
REMARK  182  A    between atoms: _415  and  _416
REMARK  183  A    between atoms: _420  and  _422
REMARK  184  A    between atoms: _422  and  _423
REMARK  185  A    between atoms: _422  and  _425
REMARK  186  A    between atoms: _425  and  _426
REMARK  187  A    between atoms: _426  and  _427
REMARK  188  A    between atoms: _427  and  _428
REMARK  189  A    between atoms: _437  and  _439
REMARK  190  A    between atoms: _439  and  _440
REMARK  191  A    between atoms: _439  and  _442
REMARK  192  A    between atoms: _442  and  _443
REMARK  193  A    between atoms: _446  and  _448
REMARK  194  A    between atoms: _448  and  _449
REMARK  195  A    between atoms: _448  and  _451
REMARK  196  A    between atoms: _454  and  _456
REMARK  197  A    between atoms: _456  and  _457
REMARK  198  A    between atoms: _456  and  _459
REMARK  199  A    between atoms: _459  and  _460
REMARK  200  A    between atoms: _460  and  _461
REMARK  201  A    between atoms: _464  and  _466
REMARK  202  A    between atoms: _466  and  _467
REMARK  203  A    between atoms: _466  and  _469
REMARK  204  A    between atoms: _471  and  _473
REMARK  205  A    between atoms: _473  and  _474
REMARK  206  A    between atoms: _473  and  _476
REMARK  207  A    between atoms: _479  and  _481
REMARK  208  A    between atoms: _481  and  _482
REMARK  209  A    between atoms: _481  and  _484
REMARK  210  A    between atoms: _484  and  _485
REMARK  211  A    between atoms: _487  and  _489
REMARK  212  A    between atoms: _489  and  _490
REMARK  213  A    between atoms: _489  and  _492
REMARK  214  A    between atoms: _492  and  _493
REMARK  215  A    between atoms: _496  and  _498
REMARK  216  A    between atoms: _498  and  _499
REMARK  217  A    between atoms: _498  and  _501
REMARK  218  A    between atoms: _501  and  _502
REMARK  219  A    between atoms: _502  and  _503
REMARK  220  A    between atoms: _503  and  _504
REMARK  221  A    between atoms: _513  and  _515
REMARK  222  A    between atoms: _515  and  _516
REMARK  223  A    between atoms: _515  and  _518
REMARK  224  A    between atoms: _521  and  _523
REMARK  225  A    between atoms: _523  and  _524
REMARK  226  A    between atoms: _523  and  _526
REMARK  227  A    between atoms: _526  and  _527
REMARK  228  A    between atoms: _532  and  _533
REMARK                            x       y       z     vdW  Elec       q    Type
REMARK                         _______ _______ _______ _____ _____    ______ ____
ROOT
ATOM      1  O   HOH     1      29.774  44.768  17.831  0.00  0.00    +0.000 OA
ENDROOT
TORSDOF 0
REMARK  Name = ../refined-set-2016/2hnx/2hnx_pocket.pdb
REMARK  228 active torsions:
REMARK  status: ('A' for Active; 'I' for Inactive)
REMARK    1  A    between atoms: _1  and  _3
REMARK    2  A    between atoms: _3  and  _4
REMARK    3  A    between atoms: _3  and  _6
REMARK    4  A    between atoms: _6  and  _7
REMARK    5  A    between atoms: _10  and  _12
REMARK    6  A    between atoms: _12  and  _13
REMARK    7  A    between atoms: _12  and  _15
REMARK    8  A    between atoms: _15  and  _16
REMARK    9  A    between atoms: _18  and  _20
REMARK   10  A    between atoms: _20  and  _21
REMARK   11  A    between atoms: _20  and  _23
REMARK   12  A    between atoms: _23  and  _24
REMARK   13  A    between atoms: _26  and  _28
REMARK   14  A    between atoms: _28  and  _29
REMARK   15  A    between atoms: _28  and  _31
REMARK   16  A    between atoms: _31  and  _32
REMARK   17  A    between atoms: _38  and  _40
REMARK   18  A    between atoms: _40  and  _41
REMARK   19  A    between atoms: _40  and  _43
REMARK   20  A    between atoms: _43  and  _44
REMARK   21  A    between atoms: _49  and  _50
REMARK   22  A    between atoms: _52  and  _54
REMARK   23  A    between atoms: _54  and  _55
REMARK   24  A    between atoms: _54  and  _57
REMARK   25  A    between atoms: _57  and  _58
REMARK   26  A    between atoms: _58  and  _59
REMARK   27  A    between atoms: _61  and  _63
REMARK   28  A    between atoms: _63  and  _64
REMARK   29  A    between atoms: _63  and  _66
REMARK   30  A    between atoms: _66  and  _67
REMARK   31  A    between atoms: _67  and  _68
REMARK   32  A    between atoms: _68  and  _69
REMARK   33  A    between atoms: _69  and  _70
REMARK   34  A    between atoms: _74  and  _76
REMARK   35  A    between atoms: _76  and  _77
REMARK   36  A    between atoms: _76  and  _79
REMARK   37  A    between atoms: _82  and  _84
REMARK   38  A    between atoms: _84  and  _85
REMARK   39  A    between atoms: _84  and  _87
REMARK   40  A    between atoms: _90  and  _92
REMARK   41  A    between atoms: _92  and  _93
REMARK   42  A    between atoms: _95  and  _97
REMARK   43  A    between atoms: _97  and  _98
REMARK   44  A    between atoms: _97  and  _100
REMARK   45  A    between atoms: _100  and  _101
REMARK   46  A    between atoms: _104  and  _106
REMARK   47  A    between atoms: _106  and  _107
REMARK   48  A    between atoms: _106  and  _109
REMARK   49  A    between atoms: _109  and  _110
REMARK   50  A    between atoms: _110  and  _111
REMARK   51  A    between atoms: _111  and  _112
REMARK   52  A    between atoms: _121  and  _123
REMARK   53  A    between atoms: _123  and  _124
REMARK   54  A    between atoms: _123  and  _126
REMARK   55  A    between atoms: _129  and  _131
REMARK   56  A    between atoms: _131  and  _132
REMARK   57  A    between atoms: _135  and  _137
REMARK   58  A    between atoms: _137  and  _138
REMARK   59  A    between atoms: _140  and  _142
REMARK   60  A    between atoms: _142  and  _143
REMARK   61  A    between atoms: _142  and  _145
REMARK   62  A    between atoms: _145  and  _146
REMARK   63  A    between atoms: _146  and  _147
REMARK   64  A    between atoms: _149  and  _151
REMARK   65  A    between atoms: _151  and  _152
REMARK   66  A    between atoms: _155  and  _157
REMARK   67  A    between atoms: _157  and  _158
REMARK   68  A    between atoms: _157  and  _160
REMARK   69  A    between atoms: _160  and  _161
REMARK   70  A    between atoms: _161  and  _162
REMARK   71  A    between atoms: _162  and  _163
REMARK   72  A    between atoms: _163  and  _164
REMARK   73  A    between atoms: _169  and  _170
REMARK   74  A    between atoms: _175  and  _177
REMARK   75  A    between atoms: _177  and  _178
REMARK   76  A    between atoms: _177  and  _180
REMARK   77  A    between atoms: _180  and  _181
REMARK   78  A    between atoms: _186  and  _188
REMARK   79  A    between atoms: _188  and  _189
REMARK   80  A    between atoms: _188  and  _191
REMARK   81  A    between atoms: _191  and  _192
REMARK   82  A    between atoms: _192  and  _193
REMARK   83  A    between atoms: _195  and  _197
REMARK   84  A    between atoms: _197  and  _198
REMARK   85  A    between atoms: _197  and  _200
REMARK   86  A    between atoms: _200  and  _201
REMARK   87  A    between atoms: _204  and  _206
REMARK   88  A    between atoms: _206  and  _207
REMARK   89  A    between atoms: _206  and  _209
REMARK   90  A    between atoms: _209  and  _210
REMARK   91  A    between atoms: _210  and  _211
REMARK   92  A    between atoms: _211  and  _212
REMARK   93  A    between atoms: _212  and  _213
REMARK   94  A    between atoms: _217  and  _219
REMARK   95  A    between atoms: _219  and  _220
REMARK   96  A    between atoms: _219  and  _222
REMARK   97  A    between atoms: _222  and  _223
REMARK   98  A    between atoms: _225  and  _227
REMARK   99  A    between atoms: _227  and  _228
REMARK  100  A    between atoms: _227  and  _230
REMARK  101  A    between atoms: _230  and  _231
REMARK  102  A    between atoms: _231  and  _232
REMARK  103  A    between atoms: _235  and  _237
REMARK  104  A    between atoms: _237  and  _238
REMARK  105  A    between atoms: _237  and  _240
REMARK  106  A    between atoms: _240  and  _241
REMARK  107  A    between atoms: _243  and  _245
REMARK  108  A    between atoms: _245  and  _246
REMARK  109  A    between atoms: _245  and  _248
REMARK  110  A    between atoms: _248  and  _249
REMARK  111  A    between atoms: _252  and  _254
REMARK  112  A    between atoms: _254  and  _255
REMARK  113  A    between atoms: _254  and  _257
REMARK  114  A    between atoms: _257  and  _258
REMARK  115  A    between atoms: _264  and  _266
REMARK  116  A    between atoms: _266  and  _267
REMARK  117  A    between atoms: _266  and  _269
REMARK  118  A    between atoms: _269  and  _270
REMARK  119  A    between atoms: _270  and  _271
REMARK  120  A    between atoms: _271  and  _272
REMARK  121  A    between atoms: _272  and  _273
REMARK  122  A    between atoms: _277  and  _279
REMARK  123  A    between atoms: _279  and  _280
REMARK  124  A    between atoms: _279  and  _282
REMARK  125  A    between atoms: _282  and  _283
REMARK  126  A    between atoms: _288  and  _290
REMARK  127  A    between atoms: _290  and  _291
REMARK  128  A    between atoms: _290  and  _293
REMARK  129  A    between atoms: _293  and  _294
REMARK  130  A    between atoms: _297  and  _299
REMARK  131  A    between atoms: _299  and  _300
REMARK  132  A    between atoms: _299  and  _302
REMARK  133  A    between atoms: _302  and  _303
REMARK  134  A    between atoms: _303  and  _304
REMARK  135  A    between atoms: _307  and  _309
REMARK  136  A    between atoms: _309  and  _310
REMARK  137  A    between atoms: _309  and  _312
REMARK  138  A    between atoms: _312  and  _313
REMARK  139  A    between atoms: _316  and  _318
REMARK  140  A    between atoms: _318  and  _319
REMARK  141  A    between atoms: _322  and  _324
REMARK  142  A    between atoms: _324  and  _325
REMARK  143  A    between atoms: _324  and  _327
REMARK  144  A    between atoms: _327  and  _328
REMARK  145  A    between atoms: _331  and  _333
REMARK  146  A    between atoms: _333  and  _334
REMARK  147  A    between atoms: _333  and  _336
REMARK  148  A    between atoms: _336  and  _337
REMARK  149  A    between atoms: _340  and  _342
REMARK  150  A    between atoms: _342  and  _343
REMARK  151  A    between atoms: _342  and  _345
REMARK  152  A    between atoms: _345  and  _346
REMARK  153  A    between atoms: _346  and  _347
REMARK  154  A    between atoms: _347  and  _348
REMARK  155  A    between atoms: _357  and  _359
REMARK  156  A    between atoms: _359  and  _360
REMARK  157  A    between atoms: _359  and  _362
REMARK  158  A    between atoms: _362  and  _363
REMARK  159  A    between atoms: _368  and  _370
REMARK  160  A    between atoms: _370  and  _371
REMARK  161  A    between atoms: _370  and  _373
REMARK  162  A    between atoms: _373  and  _374
REMARK  163  A    between atoms: _374  and  _375
REMARK  164  A    between atoms: _380  and  _382
REMARK  165  A    between atoms: _382  and  _383
REMARK  166  A    between atoms: _382  and  _385
REMARK  167  A    between atoms: _385  and  _386
REMARK  168  A    between atoms: _389  and  _391
REMARK  169  A    between atoms: _391  and  _392
REMARK  170  A    between atoms: _391  and  _394
REMARK  171  A    between atoms: _394  and  _395
REMARK  172  A    between atoms: _398  and  _400
REMARK  173  A    between atoms: _400  and  _401
REMARK  174  A    between atoms: _400  and  _403
REMARK  175  A    between atoms: _403  and  _404
REMARK  176  A    between atoms: _407  and  _409
REMARK  177  A    between atoms: _409  and  _410
REMARK  178  A    between atoms: _409  and  _412
REMARK  179  A    between atoms: _412  and  _413
REMARK  180  A    between atoms: _413  and  _414
REMARK  181  A    between atoms: _414  and  _415
REMARK  182  A    between atoms: _415  and  _416
REMARK  183  A    between atoms: _420  and  _422
REMARK  184  A    between atoms: _422  and  _423
REMARK  185  A    between atoms: _422  and  _425
REMARK  186  A    between atoms: _425  and  _426
REMARK  187  A    between atoms: _426  and  _427
REMARK  188  A    between atoms: _427  and  _428
REMARK  189  A    between atoms: _437  and  _439
REMARK  190  A    between atoms: _439  and  _440
REMARK  191  A    between atoms: _439  and  _442
REMARK  192  A    between atoms: _442  and  _443
REMARK  193  A    between atoms: _446  and  _448
REMARK  194  A    between atoms: _448  and  _449
REMARK  195  A    between atoms: _448  and  _451
REMARK  196  A    between atoms: _454  and  _456
REMARK  197  A    between atoms: _456  and  _457
REMARK  198  A    between atoms: _456  and  _459
REMARK  199  A    between atoms: _459  and  _460
REMARK  200  A    between atoms: _460  and  _461
REMARK  201  A    between atoms: _464  and  _466
REMARK  202  A    between atoms: _466  and  _467
REMARK  203  A    between atoms: _466  and  _469
REMARK  204  A    between atoms: _471  and  _473
REMARK  205  A    between atoms: _473  and  _474
REMARK  206  A    between atoms: _473  and  _476
REMARK  207  A    between atoms: _479  and  _481
REMARK  208  A    between atoms: _481  and  _482
REMARK  209  A    between atoms: _481  and  _484
REMARK  210  A    between atoms: _484  and  _485
REMARK  211  A    between atoms: _487  and  _489
REMARK  212  A    between atoms: _489  and  _490
REMARK  213  A    between atoms: _489  and  _492
REMARK  214  A    between atoms: _492  and  _493
REMARK  215  A    between atoms: _496  and  _498
REMARK  216  A    between atoms: _498  and  _499
REMARK  217  A    between atoms: _498  and  _501
REMARK  218  A    between atoms: _501  and  _502
REMARK  219  A    between atoms: _502  and  _503
REMARK  220  A    between atoms: _503  and  _504
REMARK  221  A    between atoms: _513  and  _515
REMARK  222  A    between atoms: _515  and  _516
REMARK  223  A    between atoms: _515  and  _518
REMARK  224  A    between atoms: _521  and  _523
REMARK  225  A    between atoms: _523  and  _524
REMARK  226  A    between atoms: _523  and  _526
REMARK  227  A    between atoms: _526  and  _527
REMARK  228  A    between atoms: _532  and  _533
REMARK                            x       y       z     vdW  Elec       q    Type
REMARK                         _______ _______ _______ _____ _____    ______ ____
ROOT
ATOM      1  O   HOH     1      26.196  41.738  16.975  0.00  0.00    +0.000 OA
ENDROOT
TORSDOF 0
REMARK  Name = ../refined-set-2016/2hnx/2hnx_pocket.pdb
REMARK  228 active torsions:
REMARK  status: ('A' for Active; 'I' for Inactive)
REMARK    1  A    between atoms: _1  and  _3
REMARK    2  A    between atoms: _3  and  _4
REMARK    3  A    between atoms: _3  and  _6
REMARK    4  A    between atoms: _6  and  _7
REMARK    5  A    between atoms: _10  and  _12
REMARK    6  A    between atoms: _12  and  _13
REMARK    7  A    between atoms: _12  and  _15
REMARK    8  A    between atoms: _15  and  _16
REMARK    9  A    between atoms: _18  and  _20
REMARK   10  A    between atoms: _20  and  _21
REMARK   11  A    between atoms: _20  and  _23
REMARK   12  A    between atoms: _23  and  _24
REMARK   13  A    between atoms: _26  and  _28
REMARK   14  A    between atoms: _28  and  _29
REMARK   15  A    between atoms: _28  and  _31
REMARK   16  A    between atoms: _31  and  _32
REMARK   17  A    between atoms: _38  and  _40
REMARK   18  A    between atoms: _40  and  _41
REMARK   19  A    between atoms: _40  and  _43
REMARK   20  A    between atoms: _43  and  _44
REMARK   21  A    between atoms: _49  and  _50
REMARK   22  A    between atoms: _52  and  _54
REMARK   23  A    between atoms: _54  and  _55
REMARK   24  A    between atoms: _54  and  _57
REMARK   25  A    between atoms: _57  and  _58
REMARK   26  A    between atoms: _58  and  _59
REMARK   27  A    between atoms: _61  and  _63
REMARK   28  A    between atoms: _63  and  _64
REMARK   29  A    between atoms: _63  and  _66
REMARK   30  A    between atoms: _66  and  _67
REMARK   31  A    between atoms: _67  and  _68
REMARK   32  A    between atoms: _68  and  _69
REMARK   33  A    between atoms: _69  and  _70
REMARK   34  A    between atoms: _74  and  _76
REMARK   35  A    between atoms: _76  and  _77
REMARK   36  A    between atoms: _76  and  _79
REMARK   37  A    between atoms: _82  and  _84
REMARK   38  A    between atoms: _84  and  _85
REMARK   39  A    between atoms: _84  and  _87
REMARK   40  A    between atoms: _90  and  _92
REMARK   41  A    between atoms: _92  and  _93
REMARK   42  A    between atoms: _95  and  _97
REMARK   43  A    between atoms: _97  and  _98
REMARK   44  A    between atoms: _97  and  _100
REMARK   45  A    between atoms: _100  and  _101
REMARK   46  A    between atoms: _104  and  _106
REMARK   47  A    between atoms: _106  and  _107
REMARK   48  A    between atoms: _106  and  _109
REMARK   49  A    between atoms: _109  and  _110
REMARK   50  A    between atoms: _110  and  _111
REMARK   51  A    between atoms: _111  and  _112
REMARK   52  A    between atoms: _121  and  _123
REMARK   53  A    between atoms: _123  and  _124
REMARK   54  A    between atoms: _123  and  _126
REMARK   55  A    between atoms: _129  and  _131
REMARK   56  A    between atoms: _131  and  _132
REMARK   57  A    between atoms: _135  and  _137
REMARK   58  A    between atoms: _137  and  _138
REMARK   59  A    between atoms: _140  and  _142
REMARK   60  A    between atoms: _142  and  _143
REMARK   61  A    between atoms: _142  and  _145
REMARK   62  A    between atoms: _145  and  _146
REMARK   63  A    between atoms: _146  and  _147
REMARK   64  A    between atoms: _149  and  _151
REMARK   65  A    between atoms: _151  and  _152
REMARK   66  A    between atoms: _155  and  _157
REMARK   67  A    between atoms: _157  and  _158
REMARK   68  A    between atoms: _157  and  _160
REMARK   69  A    between atoms: _160  and  _161
REMARK   70  A    between atoms: _161  and  _162
REMARK   71  A    between atoms: _162  and  _163
REMARK   72  A    between atoms: _163  and  _164
REMARK   73  A    between atoms: _169  and  _170
REMARK   74  A    between atoms: _175  and  _177
REMARK   75  A    between atoms: _177  and  _178
REMARK   76  A    between atoms: _177  and  _180
REMARK   77  A    between atoms: _180  and  _181
REMARK   78  A    between atoms: _186  and  _188
REMARK   79  A    between atoms: _188  and  _189
REMARK   80  A    between atoms: _188  and  _191
REMARK   81  A    between atoms: _191  and  _192
REMARK   82  A    between atoms: _192  and  _193
REMARK   83  A    between atoms: _195  and  _197
REMARK   84  A    between atoms: _197  and  _198
REMARK   85  A    between atoms: _197  and  _200
REMARK   86  A    between atoms: _200  and  _201
REMARK   87  A    between atoms: _204  and  _206
REMARK   88  A    between atoms: _206  and  _207
REMARK   89  A    between atoms: _206  and  _209
REMARK   90  A    between atoms: _209  and  _210
REMARK   91  A    between atoms: _210  and  _211
REMARK   92  A    between atoms: _211  and  _212
REMARK   93  A    between atoms: _212  and  _213
REMARK   94  A    between atoms: _217  and  _219
REMARK   95  A    between atoms: _219  and  _220
REMARK   96  A    between atoms: _219  and  _222
REMARK   97  A    between atoms: _222  and  _223
REMARK   98  A    between atoms: _225  and  _227
REMARK   99  A    between atoms: _227  and  _228
REMARK  100  A    between atoms: _227  and  _230
REMARK  101  A    between atoms: _230  and  _231
REMARK  102  A    between atoms: _231  and  _232
REMARK  103  A    between atoms: _235  and  _237
REMARK  104  A    between atoms: _237  and  _238
REMARK  105  A    between atoms: _237  and  _240
REMARK  106  A    between atoms: _240  and  _241
REMARK  107  A    between atoms: _243  and  _245
REMARK  108  A    between atoms: _245  and  _246
REMARK  109  A    between atoms: _245  and  _248
REMARK  110  A    between atoms: _248  and  _249
REMARK  111  A    between atoms: _252  and  _254
REMARK  112  A    between atoms: _254  and  _255
REMARK  113  A    between atoms: _254  and  _257
REMARK  114  A    between atoms: _257  and  _258
REMARK  115  A    between atoms: _264  and  _266
REMARK  116  A    between atoms: _266  and  _267
REMARK  117  A    between atoms: _266  and  _269
REMARK  118  A    between atoms: _269  and  _270
REMARK  119  A    between atoms: _270  and  _271
REMARK  120  A    between atoms: _271  and  _272
REMARK  121  A    between atoms: _272  and  _273
REMARK  122  A    between atoms: _277  and  _279
REMARK  123  A    between atoms: _279  and  _280
REMARK  124  A    between atoms: _279  and  _282
REMARK  125  A    between atoms: _282  and  _283
REMARK  126  A    between atoms: _288  and  _290
REMARK  127  A    between atoms: _290  and  _291
REMARK  128  A    between atoms: _290  and  _293
REMARK  129  A    between atoms: _293  and  _294
REMARK  130  A    between atoms: _297  and  _299
REMARK  131  A    between atoms: _299  and  _300
REMARK  132  A    between atoms: _299  and  _302
REMARK  133  A    between atoms: _302  and  _303
REMARK  134  A    between atoms: _303  and  _304
REMARK  135  A    between atoms: _307  and  _309
REMARK  136  A    between atoms: _309  and  _310
REMARK  137  A    between atoms: _309  and  _312
REMARK  138  A    between atoms: _312  and  _313
REMARK  139  A    between atoms: _316  and  _318
REMARK  140  A    between atoms: _318  and  _319
REMARK  141  A    between atoms: _322  and  _324
REMARK  142  A    between atoms: _324  and  _325
REMARK  143  A    between atoms: _324  and  _327
REMARK  144  A    between atoms: _327  and  _328
REMARK  145  A    between atoms: _331  and  _333
REMARK  146  A    between atoms: _333  and  _334
REMARK  147  A    between atoms: _333  and  _336
REMARK  148  A    between atoms: _336  and  _337
REMARK  149  A    between atoms: _340  and  _342
REMARK  150  A    between atoms: _342  and  _343
REMARK  151  A    between atoms: _342  and  _345
REMARK  152  A    between atoms: _345  and  _346
REMARK  153  A    between atoms: _346  and  _347
REMARK  154  A    between atoms: _347  and  _348
REMARK  155  A    between atoms: _357  and  _359
REMARK  156  A    between atoms: _359  and  _360
REMARK  157  A    between atoms: _359  and  _362
REMARK  158  A    between atoms: _362  and  _363
REMARK  159  A    between atoms: _368  and  _370
REMARK  160  A    between atoms: _370  and  _371
REMARK  161  A    between atoms: _370  and  _373
REMARK  162  A    between atoms: _373  and  _374
REMARK  163  A    between atoms: _374  and  _375
REMARK  164  A    between atoms: _380  and  _382
REMARK  165  A    between atoms: _382  and  _383
REMARK  166  A    between atoms: _382  and  _385
REMARK  167  A    between atoms: _385  and  _386
REMARK  168  A    between atoms: _389  and  _391
REMARK  169  A    between atoms: _391  and  _392
REMARK  170  A    between atoms: _391  and  _394
REMARK  171  A    between atoms: _394  and  _395
REMARK  172  A    between atoms: _398  and  _400
REMARK  173  A    between atoms: _400  and  _401
REMARK  174  A    between atoms: _400  and  _403
REMARK  175  A    between atoms: _403  and  _404
REMARK  176  A    between atoms: _407  and  _409
REMARK  177  A    between atoms: _409  and  _410
REMARK  178  A    between atoms: _409  and  _412
REMARK  179  A    between atoms: _412  and  _413
REMARK  180  A    between atoms: _413  and  _414
REMARK  181  A    between atoms: _414  and  _415
REMARK  182  A    between atoms: _415  and  _416
REMARK  183  A    between atoms: _420  and  _422
REMARK  184  A    between atoms: _422  and  _423
REMARK  185  A    between atoms: _422  and  _425
REMARK  186  A    between atoms: _425  and  _426
REMARK  187  A    between atoms: _426  and  _427
REMARK  188  A    between atoms: _427  and  _428
REMARK  189  A    between atoms: _437  and  _439
REMARK  190  A    between atoms: _439  and  _440
REMARK  191  A    between atoms: _439  and  _442
REMARK  192  A    between atoms: _442  and  _443
REMARK  193  A    between atoms: _446  and  _448
REMARK  194  A    between atoms: _448  and  _449
REMARK  195  A    between atoms: _448  and  _451
REMARK  196  A    between atoms: _454  and  _456
REMARK  197  A    between atoms: _456  and  _457
REMARK  198  A    between atoms: _456  and  _459
REMARK  199  A    between atoms: _459  and  _460
REMARK  200  A    between atoms: _460  and  _461
REMARK  201  A    between atoms: _464  and  _466
REMARK  202  A    between atoms: _466  and  _467
REMARK  203  A    between atoms: _466  and  _469
REMARK  204  A    between atoms: _471  and  _473
REMARK  205  A    between atoms: _473  and  _474
REMARK  206  A    between atoms: _473  and  _476
REMARK  207  A    between atoms: _479  and  _481
REMARK  208  A    between atoms: _481  and  _482
REMARK  209  A    between atoms: _481  and  _484
REMARK  210  A    between atoms: _484  and  _485
REMARK  211  A    between atoms: _487  and  _489
REMARK  212  A    between atoms: _489  and  _490
REMARK  213  A    between atoms: _489  and  _492
REMARK  214  A    between atoms: _492  and  _493
REMARK  215  A    between atoms: _496  and  _498
REMARK  216  A    between atoms: _498  and  _499
REMARK  217  A    between atoms: _498  and  _501
REMARK  218  A    between atoms: _501  and  _502
REMARK  219  A    between atoms: _502  and  _503
REMARK  220  A    between atoms: _503  and  _504
REMARK  221  A    between atoms: _513  and  _515
REMARK  222  A    between atoms: _515  and  _516
REMARK  223  A    between atoms: _515  and  _518
REMARK  224  A    between atoms: _521  and  _523
REMARK  225  A    between atoms: _523  and  _524
REMARK  226  A    between atoms: _523  and  _526
REMARK  227  A    between atoms: _526  and  _527
REMARK  228  A    between atoms: _532  and  _533
REMARK                            x       y       z     vdW  Elec       q    Type
REMARK                         _______ _______ _______ _____ _____    ______ ____
ROOT
ATOM      1  O   HOH     1      29.596  46.283  30.669  0.00  0.00    +0.000 OA
ENDROOT
TORSDOF 0
