REMARK  Name = ../refined-set-2016/4b5s/4b5s_pocket.pdb
REMARK  119 active torsions:
REMARK  status: ('A' for Active; 'I' for Inactive)
REMARK    1  A    between atoms: _1  and  _3
REMARK    2  A    between atoms: _3  and  _4
REMARK    3  A    between atoms: _3  and  _6
REMARK    4  A    between atoms: _6  and  _7
REMARK    5  A    between atoms: _17  and  _19
REMARK    6  A    between atoms: _19  and  _20
REMARK    7  A    between atoms: _19  and  _22
REMARK    8  A    between atoms: _22  and  _23
REMARK    9  A    between atoms: _26  and  _28
REMARK   10  A    between atoms: _28  and  _29
REMARK   11  A    between atoms: _28  and  _31
REMARK   12  A    between atoms: _31  and  _32
REMARK   13  A    between atoms: _35  and  _37
REMARK   14  A    between atoms: _37  and  _38
REMARK   15  A    between atoms: _37  and  _40
REMARK   16  A    between atoms: _40  and  _41
REMARK   17  A    between atoms: _41  and  _42
REMARK   18  A    between atoms: _45  and  _47
REMARK   19  A    between atoms: _47  and  _48
REMARK   20  A    between atoms: _47  and  _50
REMARK   21  A    between atoms: _50  and  _51
REMARK   22  A    between atoms: _56  and  _58
REMARK   23  A    between atoms: _58  and  _59
REMARK   24  A    between atoms: _58  and  _61
REMARK   25  A    between atoms: _61  and  _62
REMARK   26  A    between atoms: _62  and  _63
REMARK   27  A    between atoms: _63  and  _64
REMARK   28  A    between atoms: _73  and  _75
REMARK   29  A    between atoms: _75  and  _76
REMARK   30  A    between atoms: _75  and  _78
REMARK   31  A    between atoms: _78  and  _79
REMARK   32  A    between atoms: _83  and  _84
REMARK   33  A    between atoms: _89  and  _91
REMARK   34  A    between atoms: _91  and  _92
REMARK   35  A    between atoms: _91  and  _94
REMARK   36  A    between atoms: _94  and  _95
REMARK   37  A    between atoms: _95  and  _96
REMARK   38  A    between atoms: _98  and  _100
REMARK   39  A    between atoms: _100  and  _101
REMARK   40  A    between atoms: _100  and  _103
REMARK   41  A    between atoms: _103  and  _104
REMARK   42  A    between atoms: _104  and  _105
REMARK   43  A    between atoms: _110  and  _112
REMARK   44  A    between atoms: _112  and  _113
REMARK   45  A    between atoms: _112  and  _115
REMARK   46  A    between atoms: _115  and  _116
REMARK   47  A    between atoms: _119  and  _121
REMARK   48  A    between atoms: _121  and  _122
REMARK   49  A    between atoms: _121  and  _124
REMARK   50  A    between atoms: _124  and  _125
REMARK   51  A    between atoms: _125  and  _126
REMARK   52  A    between atoms: _126  and  _127
REMARK   53  A    between atoms: _127  and  CO_294
REMARK   54  A    between atoms: _129  and  _131
REMARK   55  A    between atoms: _131  and  _132
REMARK   56  A    between atoms: _131  and  _134
REMARK   57  A    between atoms: _134  and  _135
REMARK   58  A    between atoms: _141  and  _143
REMARK   59  A    between atoms: _143  and  _144
REMARK   60  A    between atoms: _143  and  _146
REMARK   61  A    between atoms: _146  and  _147
REMARK   62  A    between atoms: _150  and  _152
REMARK   63  A    between atoms: _152  and  _153
REMARK   64  A    between atoms: _156  and  _157
REMARK   65  A    between atoms: _162  and  _164
REMARK   66  A    between atoms: _164  and  _165
REMARK   67  A    between atoms: _168  and  _170
REMARK   68  A    between atoms: _170  and  _171
REMARK   69  A    between atoms: _170  and  _173
REMARK   70  A    between atoms: _173  and  _174
REMARK   71  A    between atoms: _174  and  _176
REMARK   72  A    between atoms: _176  and  CO_294
REMARK   73  A    between atoms: _177  and  _179
REMARK   74  A    between atoms: _179  and  _180
REMARK   75  A    between atoms: _179  and  _182
REMARK   76  A    between atoms: _182  and  _183
REMARK   77  A    between atoms: _186  and  _188
REMARK   78  A    between atoms: _188  and  _189
REMARK   79  A    between atoms: _188  and  _191
REMARK   80  A    between atoms: _191  and  _192
REMARK   81  A    between atoms: _194  and  _196
REMARK   82  A    between atoms: _196  and  _197
REMARK   83  A    between atoms: _200  and  _202
REMARK   84  A    between atoms: _202  and  _203
REMARK   85  A    between atoms: _202  and  _205
REMARK   86  A    between atoms: _205  and  _206
REMARK   87  A    between atoms: _209  and  _211
REMARK   88  A    between atoms: _211  and  _212
REMARK   89  A    between atoms: _215  and  _216
REMARK   90  A    between atoms: _221  and  _223
REMARK   91  A    between atoms: _223  and  _224
REMARK   92  A    between atoms: _223  and  _226
REMARK   93  A    between atoms: _226  and  _227
REMARK   94  A    between atoms: _230  and  _232
REMARK   95  A    between atoms: _232  and  _233
REMARK   96  A    between atoms: _232  and  _235
REMARK   97  A    between atoms: _235  and  _236
REMARK   98  A    between atoms: _239  and  _241
REMARK   99  A    between atoms: _241  and  _242
REMARK  100  A    between atoms: _241  and  _244
REMARK  101  A    between atoms: _244  and  _245
REMARK  102  A    between atoms: _248  and  _250
REMARK  103  A    between atoms: _250  and  _251
REMARK  104  A    between atoms: _254  and  _256
REMARK  105  A    between atoms: _256  and  _257
REMARK  106  A    between atoms: _256  and  _259
REMARK  107  A    between atoms: _262  and  _264
REMARK  108  A    between atoms: _264  and  _265
REMARK  109  A    between atoms: _267  and  _269
REMARK  110  A    between atoms: _269  and  _270
REMARK  111  A    between atoms: _269  and  _272
REMARK  112  A    between atoms: _275  and  _277
REMARK  113  A    between atoms: _277  and  _278
REMARK  114  A    between atoms: _280  and  _282
REMARK  115  A    between atoms: _282  and  _283
REMARK  116  A    between atoms: _282  and  _285
REMARK  117  A    between atoms: _285  and  _286
REMARK  118  A    between atoms: _288  and  _290
REMARK  119  A    between atoms: _290  and  _291
REMARK                            x       y       z     vdW  Elec       q    Type
REMARK                         _______ _______ _______ _____ _____    ______ ____
ROOT
ATOM      1  CG  TRP A   1     -41.571 -29.707 -13.084  0.00  0.00    -0.002 A 
ATOM      2  CD2 TRP A   1     -42.170 -30.932 -13.458  0.00  0.00    +0.013 A 
ATOM      3  CE3 TRP A   1     -42.687 -32.043 -12.737  0.00  0.00    +0.001 A 
ATOM      4  CZ3 TRP A   1     -43.197 -33.104 -13.432  0.00  0.00    +0.000 A 
ATOM      5  CH2 TRP A   1     -43.226 -33.114 -14.837  0.00  0.00    +0.001 A 
ATOM      6  CZ2 TRP A   1     -42.728 -32.051 -15.569  0.00  0.00    +0.017 A 
ATOM      7  CE2 TRP A   1     -42.207 -30.988 -14.868  0.00  0.00    +0.056 A 
ATOM      8  NE1 TRP A   1     -41.651 -29.800 -15.322  0.00  0.00    -0.352 N 
ATOM      9  HE1 TRP A   1     -41.541 -29.531 -16.321  0.00  0.00    +0.166 HD
ATOM     10  CD1 TRP A   1     -41.273 -29.044 -14.262  0.00  0.00    +0.068 A 
ENDROOT
BRANCH   1  11
ATOM     11  CB  TRP A   1     -41.381 -29.193 -11.717  0.00  0.00    +0.053 C 
BRANCH  11  12
ATOM     12  CA  TRP A   1     -40.158 -29.659 -10.941  0.00  0.00    +0.137 C 
BRANCH  12  13
ATOM     13  N   TRP A   1     -40.514 -29.851  -9.514  0.00  0.00    -0.239 NA
ATOM     14  H   TRP A   1     -41.329 -29.337  -9.124  0.00  0.00    +0.142 HD
ENDBRANCH  12  13
BRANCH  12  15
ATOM     15  C   TRP A   1     -39.095 -28.580 -11.032  0.00  0.00    +0.224 C 
ATOM     16  O   TRP A   1     -39.181 -27.534 -10.382  0.00  0.00    -0.287 OA
ENDBRANCH  12  15
ENDBRANCH  11  12
ENDBRANCH   1  11
TORSDOF 4
REMARK  Name = ../refined-set-2016/4b5s/4b5s_pocket.pdb
REMARK  119 active torsions:
REMARK  status: ('A' for Active; 'I' for Inactive)
REMARK    1  A    between atoms: _1  and  _3
REMARK    2  A    between atoms: _3  and  _4
REMARK    3  A    between atoms: _3  and  _6
REMARK    4  A    between atoms: _6  and  _7
REMARK    5  A    between atoms: _17  and  _19
REMARK    6  A    between atoms: _19  and  _20
REMARK    7  A    between atoms: _19  and  _22
REMARK    8  A    between atoms: _22  and  _23
REMARK    9  A    between atoms: _26  and  _28
REMARK   10  A    between atoms: _28  and  _29
REMARK   11  A    between atoms: _28  and  _31
REMARK   12  A    between atoms: _31  and  _32
REMARK   13  A    between atoms: _35  and  _37
REMARK   14  A    between atoms: _37  and  _38
REMARK   15  A    between atoms: _37  and  _40
REMARK   16  A    between atoms: _40  and  _41
REMARK   17  A    between atoms: _41  and  _42
REMARK   18  A    between atoms: _45  and  _47
REMARK   19  A    between atoms: _47  and  _48
REMARK   20  A    between atoms: _47  and  _50
REMARK   21  A    between atoms: _50  and  _51
REMARK   22  A    between atoms: _56  and  _58
REMARK   23  A    between atoms: _58  and  _59
REMARK   24  A    between atoms: _58  and  _61
REMARK   25  A    between atoms: _61  and  _62
REMARK   26  A    between atoms: _62  and  _63
REMARK   27  A    between atoms: _63  and  _64
REMARK   28  A    between atoms: _73  and  _75
REMARK   29  A    between atoms: _75  and  _76
REMARK   30  A    between atoms: _75  and  _78
REMARK   31  A    between atoms: _78  and  _79
REMARK   32  A    between atoms: _83  and  _84
REMARK   33  A    between atoms: _89  and  _91
REMARK   34  A    between atoms: _91  and  _92
REMARK   35  A    between atoms: _91  and  _94
REMARK   36  A    between atoms: _94  and  _95
REMARK   37  A    between atoms: _95  and  _96
REMARK   38  A    between atoms: _98  and  _100
REMARK   39  A    between atoms: _100  and  _101
REMARK   40  A    between atoms: _100  and  _103
REMARK   41  A    between atoms: _103  and  _104
REMARK   42  A    between atoms: _104  and  _105
REMARK   43  A    between atoms: _110  and  _112
REMARK   44  A    between atoms: _112  and  _113
REMARK   45  A    between atoms: _112  and  _115
REMARK   46  A    between atoms: _115  and  _116
REMARK   47  A    between atoms: _119  and  _121
REMARK   48  A    between atoms: _121  and  _122
REMARK   49  A    between atoms: _121  and  _124
REMARK   50  A    between atoms: _124  and  _125
REMARK   51  A    between atoms: _125  and  _126
REMARK   52  A    between atoms: _126  and  _127
REMARK   53  A    between atoms: _127  and  CO_294
REMARK   54  A    between atoms: _129  and  _131
REMARK   55  A    between atoms: _131  and  _132
REMARK   56  A    between atoms: _131  and  _134
REMARK   57  A    between atoms: _134  and  _135
REMARK   58  A    between atoms: _141  and  _143
REMARK   59  A    between atoms: _143  and  _144
REMARK   60  A    between atoms: _143  and  _146
REMARK   61  A    between atoms: _146  and  _147
REMARK   62  A    between atoms: _150  and  _152
REMARK   63  A    between atoms: _152  and  _153
REMARK   64  A    between atoms: _156  and  _157
REMARK   65  A    between atoms: _162  and  _164
REMARK   66  A    between atoms: _164  and  _165
REMARK   67  A    between atoms: _168  and  _170
REMARK   68  A    between atoms: _170  and  _171
REMARK   69  A    between atoms: _170  and  _173
REMARK   70  A    between atoms: _173  and  _174
REMARK   71  A    between atoms: _174  and  _176
REMARK   72  A    between atoms: _176  and  CO_294
REMARK   73  A    between atoms: _177  and  _179
REMARK   74  A    between atoms: _179  and  _180
REMARK   75  A    between atoms: _179  and  _182
REMARK   76  A    between atoms: _182  and  _183
REMARK   77  A    between atoms: _186  and  _188
REMARK   78  A    between atoms: _188  and  _189
REMARK   79  A    between atoms: _188  and  _191
REMARK   80  A    between atoms: _191  and  _192
REMARK   81  A    between atoms: _194  and  _196
REMARK   82  A    between atoms: _196  and  _197
REMARK   83  A    between atoms: _200  and  _202
REMARK   84  A    between atoms: _202  and  _203
REMARK   85  A    between atoms: _202  and  _205
REMARK   86  A    between atoms: _205  and  _206
REMARK   87  A    between atoms: _209  and  _211
REMARK   88  A    between atoms: _211  and  _212
REMARK   89  A    between atoms: _215  and  _216
REMARK   90  A    between atoms: _221  and  _223
REMARK   91  A    between atoms: _223  and  _224
REMARK   92  A    between atoms: _223  and  _226
REMARK   93  A    between atoms: _226  and  _227
REMARK   94  A    between atoms: _230  and  _232
REMARK   95  A    between atoms: _232  and  _233
REMARK   96  A    between atoms: _232  and  _235
REMARK   97  A    between atoms: _235  and  _236
REMARK   98  A    between atoms: _239  and  _241
REMARK   99  A    between atoms: _241  and  _242
REMARK  100  A    between atoms: _241  and  _244
REMARK  101  A    between atoms: _244  and  _245
REMARK  102  A    between atoms: _248  and  _250
REMARK  103  A    between atoms: _250  and  _251
REMARK  104  A    between atoms: _254  and  _256
REMARK  105  A    between atoms: _256  and  _257
REMARK  106  A    between atoms: _256  and  _259
REMARK  107  A    between atoms: _262  and  _264
REMARK  108  A    between atoms: _264  and  _265
REMARK  109  A    between atoms: _267  and  _269
REMARK  110  A    between atoms: _269  and  _270
REMARK  111  A    between atoms: _269  and  _272
REMARK  112  A    between atoms: _275  and  _277
REMARK  113  A    between atoms: _277  and  _278
REMARK  114  A    between atoms: _280  and  _282
REMARK  115  A    between atoms: _282  and  _283
REMARK  116  A    between atoms: _282  and  _285
REMARK  117  A    between atoms: _285  and  _286
REMARK  118  A    between atoms: _288  and  _290
REMARK  119  A    between atoms: _290  and  _291
REMARK                            x       y       z     vdW  Elec       q    Type
REMARK                         _______ _______ _______ _____ _____    ______ ____
ROOT
ATOM      1  CA  LEU A   1     -37.616 -33.361 -12.424  0.00  0.00    +0.133 C 
ENDROOT
BRANCH   1   2
ATOM      2  N   LEU A   1     -37.418 -33.159 -10.978  0.00  0.00    -0.239 NA
ATOM      3  H   LEU A   1     -37.962 -32.417 -10.492  0.00  0.00    +0.142 HD
ENDBRANCH   1   2
BRANCH   1   4
ATOM      4  C   LEU A   1     -36.850 -32.258 -13.186  0.00  0.00    +0.224 C 
ATOM      5  O   LEU A   1     -37.172 -31.089 -13.098  0.00  0.00    -0.287 OA
ENDBRANCH   1   4
BRANCH   1   6
ATOM      6  CB  LEU A   1     -39.115 -33.300 -12.759  0.00  0.00    +0.025 C 
BRANCH   6   7
ATOM      7  CG  LEU A   1     -39.581 -33.675 -14.169  0.00  0.00    +0.002 C 
ATOM      8  CD2 LEU A   1     -39.110 -35.020 -14.657  0.00  0.00    +0.000 C 
ATOM      9  CD1 LEU A   1     -39.226 -32.583 -15.222  0.00  0.00    +0.000 C 
ENDBRANCH   6   7
ENDBRANCH   1   6
TORSDOF 4
REMARK  Name = ../refined-set-2016/4b5s/4b5s_pocket.pdb
REMARK  119 active torsions:
REMARK  status: ('A' for Active; 'I' for Inactive)
REMARK    1  A    between atoms: _1  and  _3
REMARK    2  A    between atoms: _3  and  _4
REMARK    3  A    between atoms: _3  and  _6
REMARK    4  A    between atoms: _6  and  _7
REMARK    5  A    between atoms: _17  and  _19
REMARK    6  A    between atoms: _19  and  _20
REMARK    7  A    between atoms: _19  and  _22
REMARK    8  A    between atoms: _22  and  _23
REMARK    9  A    between atoms: _26  and  _28
REMARK   10  A    between atoms: _28  and  _29
REMARK   11  A    between atoms: _28  and  _31
REMARK   12  A    between atoms: _31  and  _32
REMARK   13  A    between atoms: _35  and  _37
REMARK   14  A    between atoms: _37  and  _38
REMARK   15  A    between atoms: _37  and  _40
REMARK   16  A    between atoms: _40  and  _41
REMARK   17  A    between atoms: _41  and  _42
REMARK   18  A    between atoms: _45  and  _47
REMARK   19  A    between atoms: _47  and  _48
REMARK   20  A    between atoms: _47  and  _50
REMARK   21  A    between atoms: _50  and  _51
REMARK   22  A    between atoms: _56  and  _58
REMARK   23  A    between atoms: _58  and  _59
REMARK   24  A    between atoms: _58  and  _61
REMARK   25  A    between atoms: _61  and  _62
REMARK   26  A    between atoms: _62  and  _63
REMARK   27  A    between atoms: _63  and  _64
REMARK   28  A    between atoms: _73  and  _75
REMARK   29  A    between atoms: _75  and  _76
REMARK   30  A    between atoms: _75  and  _78
REMARK   31  A    between atoms: _78  and  _79
REMARK   32  A    between atoms: _83  and  _84
REMARK   33  A    between atoms: _89  and  _91
REMARK   34  A    between atoms: _91  and  _92
REMARK   35  A    between atoms: _91  and  _94
REMARK   36  A    between atoms: _94  and  _95
REMARK   37  A    between atoms: _95  and  _96
REMARK   38  A    between atoms: _98  and  _100
REMARK   39  A    between atoms: _100  and  _101
REMARK   40  A    between atoms: _100  and  _103
REMARK   41  A    between atoms: _103  and  _104
REMARK   42  A    between atoms: _104  and  _105
REMARK   43  A    between atoms: _110  and  _112
REMARK   44  A    between atoms: _112  and  _113
REMARK   45  A    between atoms: _112  and  _115
REMARK   46  A    between atoms: _115  and  _116
REMARK   47  A    between atoms: _119  and  _121
REMARK   48  A    between atoms: _121  and  _122
REMARK   49  A    between atoms: _121  and  _124
REMARK   50  A    between atoms: _124  and  _125
REMARK   51  A    between atoms: _125  and  _126
REMARK   52  A    between atoms: _126  and  _127
REMARK   53  A    between atoms: _127  and  CO_294
REMARK   54  A    between atoms: _129  and  _131
REMARK   55  A    between atoms: _131  and  _132
REMARK   56  A    between atoms: _131  and  _134
REMARK   57  A    between atoms: _134  and  _135
REMARK   58  A    between atoms: _141  and  _143
REMARK   59  A    between atoms: _143  and  _144
REMARK   60  A    between atoms: _143  and  _146
REMARK   61  A    between atoms: _146  and  _147
REMARK   62  A    between atoms: _150  and  _152
REMARK   63  A    between atoms: _152  and  _153
REMARK   64  A    between atoms: _156  and  _157
REMARK   65  A    between atoms: _162  and  _164
REMARK   66  A    between atoms: _164  and  _165
REMARK   67  A    between atoms: _168  and  _170
REMARK   68  A    between atoms: _170  and  _171
REMARK   69  A    between atoms: _170  and  _173
REMARK   70  A    between atoms: _173  and  _174
REMARK   71  A    between atoms: _174  and  _176
REMARK   72  A    between atoms: _176  and  CO_294
REMARK   73  A    between atoms: _177  and  _179
REMARK   74  A    between atoms: _179  and  _180
REMARK   75  A    between atoms: _179  and  _182
REMARK   76  A    between atoms: _182  and  _183
REMARK   77  A    between atoms: _186  and  _188
REMARK   78  A    between atoms: _188  and  _189
REMARK   79  A    between atoms: _188  and  _191
REMARK   80  A    between atoms: _191  and  _192
REMARK   81  A    between atoms: _194  and  _196
REMARK   82  A    between atoms: _196  and  _197
REMARK   83  A    between atoms: _200  and  _202
REMARK   84  A    between atoms: _202  and  _203
REMARK   85  A    between atoms: _202  and  _205
REMARK   86  A    between atoms: _205  and  _206
REMARK   87  A    between atoms: _209  and  _211
REMARK   88  A    between atoms: _211  and  _212
REMARK   89  A    between atoms: _215  and  _216
REMARK   90  A    between atoms: _221  and  _223
REMARK   91  A    between atoms: _223  and  _224
REMARK   92  A    between atoms: _223  and  _226
REMARK   93  A    between atoms: _226  and  _227
REMARK   94  A    between atoms: _230  and  _232
REMARK   95  A    between atoms: _232  and  _233
REMARK   96  A    between atoms: _232  and  _235
REMARK   97  A    between atoms: _235  and  _236
REMARK   98  A    between atoms: _239  and  _241
REMARK   99  A    between atoms: _241  and  _242
REMARK  100  A    between atoms: _241  and  _244
REMARK  101  A    between atoms: _244  and  _245
REMARK  102  A    between atoms: _248  and  _250
REMARK  103  A    between atoms: _250  and  _251
REMARK  104  A    between atoms: _254  and  _256
REMARK  105  A    between atoms: _256  and  _257
REMARK  106  A    between atoms: _256  and  _259
REMARK  107  A    between atoms: _262  and  _264
REMARK  108  A    between atoms: _264  and  _265
REMARK  109  A    between atoms: _267  and  _269
REMARK  110  A    between atoms: _269  and  _270
REMARK  111  A    between atoms: _269  and  _272
REMARK  112  A    between atoms: _275  and  _277
REMARK  113  A    between atoms: _277  and  _278
REMARK  114  A    between atoms: _280  and  _282
REMARK  115  A    between atoms: _282  and  _283
REMARK  116  A    between atoms: _282  and  _285
REMARK  117  A    between atoms: _285  and  _286
REMARK  118  A    between atoms: _288  and  _290
REMARK  119  A    between atoms: _290  and  _291
REMARK                            x       y       z     vdW  Elec       q    Type
REMARK                         _______ _______ _______ _____ _____    ______ ____
ROOT
ATOM      1  CA  ASP A   1     -37.299 -30.534 -17.581  0.00  0.00    +0.144 C 
ENDROOT
BRANCH   1   2
ATOM      2  N   ASP A   1     -36.392 -30.587 -16.452  0.00  0.00    -0.239 NA
ATOM      3  H   ASP A   1     -36.239 -29.735 -15.875  0.00  0.00    +0.142 HD
ENDBRANCH   1   2
BRANCH   1   4
ATOM      4  C   ASP A   1     -36.582 -30.104 -18.885  0.00  0.00    +0.225 C 
ATOM      5  O   ASP A   1     -36.245 -28.948 -19.048  0.00  0.00    -0.287 OA
ENDBRANCH   1   4
BRANCH   1   6
ATOM      6  CB  ASP A   1     -38.435 -29.563 -17.288  0.00  0.00    +0.139 C 
BRANCH   6   7
ATOM      7  CG  ASP A   1     -39.563 -29.649 -18.294  0.00  0.00    +0.367 C 
ATOM      8  OD2 ASP A   1     -40.645 -29.065 -17.967  0.00  0.00    -0.246 OA
ATOM      9  OD1 ASP A   1     -39.417 -30.320 -19.329  0.00  0.00    -0.246 OA
ENDBRANCH   6   7
ENDBRANCH   1   6
TORSDOF 4
REMARK  Name = ../refined-set-2016/4b5s/4b5s_pocket.pdb
REMARK  119 active torsions:
REMARK  status: ('A' for Active; 'I' for Inactive)
REMARK    1  A    between atoms: _1  and  _3
REMARK    2  A    between atoms: _3  and  _4
REMARK    3  A    between atoms: _3  and  _6
REMARK    4  A    between atoms: _6  and  _7
REMARK    5  A    between atoms: _17  and  _19
REMARK    6  A    between atoms: _19  and  _20
REMARK    7  A    between atoms: _19  and  _22
REMARK    8  A    between atoms: _22  and  _23
REMARK    9  A    between atoms: _26  and  _28
REMARK   10  A    between atoms: _28  and  _29
REMARK   11  A    between atoms: _28  and  _31
REMARK   12  A    between atoms: _31  and  _32
REMARK   13  A    between atoms: _35  and  _37
REMARK   14  A    between atoms: _37  and  _38
REMARK   15  A    between atoms: _37  and  _40
REMARK   16  A    between atoms: _40  and  _41
REMARK   17  A    between atoms: _41  and  _42
REMARK   18  A    between atoms: _45  and  _47
REMARK   19  A    between atoms: _47  and  _48
REMARK   20  A    between atoms: _47  and  _50
REMARK   21  A    between atoms: _50  and  _51
REMARK   22  A    between atoms: _56  and  _58
REMARK   23  A    between atoms: _58  and  _59
REMARK   24  A    between atoms: _58  and  _61
REMARK   25  A    between atoms: _61  and  _62
REMARK   26  A    between atoms: _62  and  _63
REMARK   27  A    between atoms: _63  and  _64
REMARK   28  A    between atoms: _73  and  _75
REMARK   29  A    between atoms: _75  and  _76
REMARK   30  A    between atoms: _75  and  _78
REMARK   31  A    between atoms: _78  and  _79
REMARK   32  A    between atoms: _83  and  _84
REMARK   33  A    between atoms: _89  and  _91
REMARK   34  A    between atoms: _91  and  _92
REMARK   35  A    between atoms: _91  and  _94
REMARK   36  A    between atoms: _94  and  _95
REMARK   37  A    between atoms: _95  and  _96
REMARK   38  A    between atoms: _98  and  _100
REMARK   39  A    between atoms: _100  and  _101
REMARK   40  A    between atoms: _100  and  _103
REMARK   41  A    between atoms: _103  and  _104
REMARK   42  A    between atoms: _104  and  _105
REMARK   43  A    between atoms: _110  and  _112
REMARK   44  A    between atoms: _112  and  _113
REMARK   45  A    between atoms: _112  and  _115
REMARK   46  A    between atoms: _115  and  _116
REMARK   47  A    between atoms: _119  and  _121
REMARK   48  A    between atoms: _121  and  _122
REMARK   49  A    between atoms: _121  and  _124
REMARK   50  A    between atoms: _124  and  _125
REMARK   51  A    between atoms: _125  and  _126
REMARK   52  A    between atoms: _126  and  _127
REMARK   53  A    between atoms: _127  and  CO_294
REMARK   54  A    between atoms: _129  and  _131
REMARK   55  A    between atoms: _131  and  _132
REMARK   56  A    between atoms: _131  and  _134
REMARK   57  A    between atoms: _134  and  _135
REMARK   58  A    between atoms: _141  and  _143
REMARK   59  A    between atoms: _143  and  _144
REMARK   60  A    between atoms: _143  and  _146
REMARK   61  A    between atoms: _146  and  _147
REMARK   62  A    between atoms: _150  and  _152
REMARK   63  A    between atoms: _152  and  _153
REMARK   64  A    between atoms: _156  and  _157
REMARK   65  A    between atoms: _162  and  _164
REMARK   66  A    between atoms: _164  and  _165
REMARK   67  A    between atoms: _168  and  _170
REMARK   68  A    between atoms: _170  and  _171
REMARK   69  A    between atoms: _170  and  _173
REMARK   70  A    between atoms: _173  and  _174
REMARK   71  A    between atoms: _174  and  _176
REMARK   72  A    between atoms: _176  and  CO_294
REMARK   73  A    between atoms: _177  and  _179
REMARK   74  A    between atoms: _179  and  _180
REMARK   75  A    between atoms: _179  and  _182
REMARK   76  A    between atoms: _182  and  _183
REMARK   77  A    between atoms: _186  and  _188
REMARK   78  A    between atoms: _188  and  _189
REMARK   79  A    between atoms: _188  and  _191
REMARK   80  A    between atoms: _191  and  _192
REMARK   81  A    between atoms: _194  and  _196
REMARK   82  A    between atoms: _196  and  _197
REMARK   83  A    between atoms: _200  and  _202
REMARK   84  A    between atoms: _202  and  _203
REMARK   85  A    between atoms: _202  and  _205
REMARK   86  A    between atoms: _205  and  _206
REMARK   87  A    between atoms: _209  and  _211
REMARK   88  A    between atoms: _211  and  _212
REMARK   89  A    between atoms: _215  and  _216
REMARK   90  A    between atoms: _221  and  _223
REMARK   91  A    between atoms: _223  and  _224
REMARK   92  A    between atoms: _223  and  _226
REMARK   93  A    between atoms: _226  and  _227
REMARK   94  A    between atoms: _230  and  _232
REMARK   95  A    between atoms: _232  and  _233
REMARK   96  A    between atoms: _232  and  _235
REMARK   97  A    between atoms: _235  and  _236
REMARK   98  A    between atoms: _239  and  _241
REMARK   99  A    between atoms: _241  and  _242
REMARK  100  A    between atoms: _241  and  _244
REMARK  101  A    between atoms: _244  and  _245
REMARK  102  A    between atoms: _248  and  _250
REMARK  103  A    between atoms: _250  and  _251
REMARK  104  A    between atoms: _254  and  _256
REMARK  105  A    between atoms: _256  and  _257
REMARK  106  A    between atoms: _256  and  _259
REMARK  107  A    between atoms: _262  and  _264
REMARK  108  A    between atoms: _264  and  _265
REMARK  109  A    between atoms: _267  and  _269
REMARK  110  A    between atoms: _269  and  _270
REMARK  111  A    between atoms: _269  and  _272
REMARK  112  A    between atoms: _275  and  _277
REMARK  113  A    between atoms: _277  and  _278
REMARK  114  A    between atoms: _280  and  _282
REMARK  115  A    between atoms: _282  and  _283
REMARK  116  A    between atoms: _282  and  _285
REMARK  117  A    between atoms: _285  and  _286
REMARK  118  A    between atoms: _288  and  _290
REMARK  119  A    between atoms: _290  and  _291
REMARK                            x       y       z     vdW  Elec       q    Type
REMARK                         _______ _______ _______ _____ _____    ______ ____
ROOT
ATOM      1  C   GLU A   1     -39.657 -28.822 -22.739  0.00  0.00    +0.238 C 
ATOM      2  N   HIS A   2     -39.938 -28.276 -21.561  0.00  0.00    -0.298 N 
ATOM      3  H   HIS A   2     -39.733 -28.816 -20.696  0.00  0.00    +0.150 HD
ATOM      4  O   GLU A   1     -39.789 -28.181 -23.793  0.00  0.00    -0.274 OA
ENDROOT
BRANCH   1   5
ATOM      5  CA  GLU A   1     -39.161 -30.277 -22.782  0.00  0.00    +0.145 C 
BRANCH   5   6
ATOM      6  N   GLU A   1     -38.115 -30.534 -21.791  0.00  0.00    -0.238 NA
ATOM      7  H   GLU A   1     -38.381 -30.752 -20.809  0.00  0.00    +0.142 HD
ENDBRANCH   5   6
BRANCH   5   8
ATOM      8  CB  GLU A   1     -40.361 -31.229 -22.616  0.00  0.00    +0.038 C 
BRANCH   8   9
ATOM      9  CG  GLU A   1     -41.410 -31.030 -23.695  0.00  0.00    +0.116 C 
BRANCH   9  10
ATOM     10  CD  GLU A   1     -42.722 -31.728 -23.462  0.00  0.00    +0.365 C 
ATOM     11  OE2 GLU A   1     -43.049 -32.094 -22.314  0.00  0.00    -0.246 OA
ATOM     12  OE1 GLU A   1     -43.460 -31.885 -24.465  0.00  0.00    -0.246 OA
ENDBRANCH   9  10
ENDBRANCH   8   9
ENDBRANCH   5   8
ENDBRANCH   1   5
BRANCH   2  13
ATOM     13  CA  HIS A   2     -40.530 -26.933 -21.437  0.00  0.00    +0.143 C 
BRANCH  13  14
ATOM     14  C   HIS A   2     -39.642 -25.897 -20.755  0.00  0.00    +0.227 C 
ATOM     15  O   HIS A   2     -40.086 -24.773 -20.529  0.00  0.00    -0.286 OA
ENDBRANCH  13  14
BRANCH  13  16
ATOM     16  CB  HIS A   2     -41.905 -27.037 -20.709  0.00  0.00    +0.075 C 
BRANCH  16  17
ATOM     17  CG  HIS A   2     -42.972 -27.548 -21.599  0.00  0.00    +0.082 A 
ATOM     18  CD2 HIS A   2     -43.598 -28.744 -21.684  0.00  0.00    +0.115 A 
ATOM     19  NE2 HIS A   2     -44.437 -28.708 -22.764  0.00  0.00    -0.221 NA
ATOM     20  CE1 HIS A   2     -44.338 -27.510 -23.345  0.00  0.00    +0.199 A 
ATOM     21  ND1 HIS A   2     -43.468 -26.797 -22.668  0.00  0.00    -0.227 NA
ENDBRANCH  16  17
ENDBRANCH  13  16
ENDBRANCH   2  13
TORSDOF 9
REMARK  Name = ../refined-set-2016/4b5s/4b5s_pocket.pdb
REMARK  119 active torsions:
REMARK  status: ('A' for Active; 'I' for Inactive)
REMARK    1  A    between atoms: _1  and  _3
REMARK    2  A    between atoms: _3  and  _4
REMARK    3  A    between atoms: _3  and  _6
REMARK    4  A    between atoms: _6  and  _7
REMARK    5  A    between atoms: _17  and  _19
REMARK    6  A    between atoms: _19  and  _20
REMARK    7  A    between atoms: _19  and  _22
REMARK    8  A    between atoms: _22  and  _23
REMARK    9  A    between atoms: _26  and  _28
REMARK   10  A    between atoms: _28  and  _29
REMARK   11  A    between atoms: _28  and  _31
REMARK   12  A    between atoms: _31  and  _32
REMARK   13  A    between atoms: _35  and  _37
REMARK   14  A    between atoms: _37  and  _38
REMARK   15  A    between atoms: _37  and  _40
REMARK   16  A    between atoms: _40  and  _41
REMARK   17  A    between atoms: _41  and  _42
REMARK   18  A    between atoms: _45  and  _47
REMARK   19  A    between atoms: _47  and  _48
REMARK   20  A    between atoms: _47  and  _50
REMARK   21  A    between atoms: _50  and  _51
REMARK   22  A    between atoms: _56  and  _58
REMARK   23  A    between atoms: _58  and  _59
REMARK   24  A    between atoms: _58  and  _61
REMARK   25  A    between atoms: _61  and  _62
REMARK   26  A    between atoms: _62  and  _63
REMARK   27  A    between atoms: _63  and  _64
REMARK   28  A    between atoms: _73  and  _75
REMARK   29  A    between atoms: _75  and  _76
REMARK   30  A    between atoms: _75  and  _78
REMARK   31  A    between atoms: _78  and  _79
REMARK   32  A    between atoms: _83  and  _84
REMARK   33  A    between atoms: _89  and  _91
REMARK   34  A    between atoms: _91  and  _92
REMARK   35  A    between atoms: _91  and  _94
REMARK   36  A    between atoms: _94  and  _95
REMARK   37  A    between atoms: _95  and  _96
REMARK   38  A    between atoms: _98  and  _100
REMARK   39  A    between atoms: _100  and  _101
REMARK   40  A    between atoms: _100  and  _103
REMARK   41  A    between atoms: _103  and  _104
REMARK   42  A    between atoms: _104  and  _105
REMARK   43  A    between atoms: _110  and  _112
REMARK   44  A    between atoms: _112  and  _113
REMARK   45  A    between atoms: _112  and  _115
REMARK   46  A    between atoms: _115  and  _116
REMARK   47  A    between atoms: _119  and  _121
REMARK   48  A    between atoms: _121  and  _122
REMARK   49  A    between atoms: _121  and  _124
REMARK   50  A    between atoms: _124  and  _125
REMARK   51  A    between atoms: _125  and  _126
REMARK   52  A    between atoms: _126  and  _127
REMARK   53  A    between atoms: _127  and  CO_294
REMARK   54  A    between atoms: _129  and  _131
REMARK   55  A    between atoms: _131  and  _132
REMARK   56  A    between atoms: _131  and  _134
REMARK   57  A    between atoms: _134  and  _135
REMARK   58  A    between atoms: _141  and  _143
REMARK   59  A    between atoms: _143  and  _144
REMARK   60  A    between atoms: _143  and  _146
REMARK   61  A    between atoms: _146  and  _147
REMARK   62  A    between atoms: _150  and  _152
REMARK   63  A    between atoms: _152  and  _153
REMARK   64  A    between atoms: _156  and  _157
REMARK   65  A    between atoms: _162  and  _164
REMARK   66  A    between atoms: _164  and  _165
REMARK   67  A    between atoms: _168  and  _170
REMARK   68  A    between atoms: _170  and  _171
REMARK   69  A    between atoms: _170  and  _173
REMARK   70  A    between atoms: _173  and  _174
REMARK   71  A    between atoms: _174  and  _176
REMARK   72  A    between atoms: _176  and  CO_294
REMARK   73  A    between atoms: _177  and  _179
REMARK   74  A    between atoms: _179  and  _180
REMARK   75  A    between atoms: _179  and  _182
REMARK   76  A    between atoms: _182  and  _183
REMARK   77  A    between atoms: _186  and  _188
REMARK   78  A    between atoms: _188  and  _189
REMARK   79  A    between atoms: _188  and  _191
REMARK   80  A    between atoms: _191  and  _192
REMARK   81  A    between atoms: _194  and  _196
REMARK   82  A    between atoms: _196  and  _197
REMARK   83  A    between atoms: _200  and  _202
REMARK   84  A    between atoms: _202  and  _203
REMARK   85  A    between atoms: _202  and  _205
REMARK   86  A    between atoms: _205  and  _206
REMARK   87  A    between atoms: _209  and  _211
REMARK   88  A    between atoms: _211  and  _212
REMARK   89  A    between atoms: _215  and  _216
REMARK   90  A    between atoms: _221  and  _223
REMARK   91  A    between atoms: _223  and  _224
REMARK   92  A    between atoms: _223  and  _226
REMARK   93  A    between atoms: _226  and  _227
REMARK   94  A    between atoms: _230  and  _232
REMARK   95  A    between atoms: _232  and  _233
REMARK   96  A    between atoms: _232  and  _235
REMARK   97  A    between atoms: _235  and  _236
REMARK   98  A    between atoms: _239  and  _241
REMARK   99  A    between atoms: _241  and  _242
REMARK  100  A    between atoms: _241  and  _244
REMARK  101  A    between atoms: _244  and  _245
REMARK  102  A    between atoms: _248  and  _250
REMARK  103  A    between atoms: _250  and  _251
REMARK  104  A    between atoms: _254  and  _256
REMARK  105  A    between atoms: _256  and  _257
REMARK  106  A    between atoms: _256  and  _259
REMARK  107  A    between atoms: _262  and  _264
REMARK  108  A    between atoms: _264  and  _265
REMARK  109  A    between atoms: _267  and  _269
REMARK  110  A    between atoms: _269  and  _270
REMARK  111  A    between atoms: _269  and  _272
REMARK  112  A    between atoms: _275  and  _277
REMARK  113  A    between atoms: _277  and  _278
REMARK  114  A    between atoms: _280  and  _282
REMARK  115  A    between atoms: _282  and  _283
REMARK  116  A    between atoms: _282  and  _285
REMARK  117  A    between atoms: _285  and  _286
REMARK  118  A    between atoms: _288  and  _290
REMARK  119  A    between atoms: _290  and  _291
REMARK                            x       y       z     vdW  Elec       q    Type
REMARK                         _______ _______ _______ _____ _____    ______ ____
ROOT
ATOM      1  NE  ARG A   1     -41.506 -32.470 -19.361  0.00  0.00    -0.265 N 
ATOM      2  CZ  ARG A   1     -42.705 -31.910 -19.137  0.00  0.00    +0.342 C 
ATOM      3  NH2 ARG A   1     -42.820 -30.633 -18.874  0.00  0.00    -0.292 N 
ATOM      4 HH21 ARG A   1     -43.759 -30.220 -18.704  0.00  0.00    +0.255 HD
ATOM      5 HH22 ARG A   1     -41.972 -30.032 -18.835  0.00  0.00    +0.255 HD
ATOM      6  NH1 ARG A   1     -43.793 -32.682 -19.159  0.00  0.00    -0.292 N 
ATOM      7 HH11 ARG A   1     -44.730 -32.265 -18.988  0.00  0.00    +0.255 HD
ATOM      8 HH12 ARG A   1     -43.704 -33.701 -19.348  0.00  0.00    +0.255 HD
ATOM      9  HE  ARG A   1     -40.654 -31.875 -19.314  0.00  0.00    +0.259 HD
ENDROOT
BRANCH   1  10
ATOM     10  CD  ARG A   1     -41.366 -33.861 -19.662  0.00  0.00    +0.174 C 
BRANCH  10  11
ATOM     11  CG  ARG A   1     -39.945 -34.275 -20.016  0.00  0.00    +0.045 C 
BRANCH  11  12
ATOM     12  CB  ARG A   1     -38.940 -34.333 -18.874  0.00  0.00    +0.029 C 
BRANCH  12  13
ATOM     13  CA  ARG A   1     -37.801 -35.273 -19.178  0.00  0.00    +0.133 C 
BRANCH  13  14
ATOM     14  N   ARG A   1     -36.829 -35.278 -18.090  0.00  0.00    -0.239 NA
ATOM     15  H   ARG A   1     -36.562 -34.373 -17.652  0.00  0.00    +0.142 HD
ENDBRANCH  13  14
BRANCH  13  16
ATOM     16  C   ARG A   1     -37.110 -34.824 -20.490  0.00  0.00    +0.224 C 
ATOM     17  O   ARG A   1     -36.731 -33.659 -20.611  0.00  0.00    -0.287 OA
ENDBRANCH  13  16
ENDBRANCH  12  13
ENDBRANCH  11  12
ENDBRANCH  10  11
ENDBRANCH   1  10
TORSDOF 6
REMARK  Name = ../refined-set-2016/4b5s/4b5s_pocket.pdb
REMARK  119 active torsions:
REMARK  status: ('A' for Active; 'I' for Inactive)
REMARK    1  A    between atoms: _1  and  _3
REMARK    2  A    between atoms: _3  and  _4
REMARK    3  A    between atoms: _3  and  _6
REMARK    4  A    between atoms: _6  and  _7
REMARK    5  A    between atoms: _17  and  _19
REMARK    6  A    between atoms: _19  and  _20
REMARK    7  A    between atoms: _19  and  _22
REMARK    8  A    between atoms: _22  and  _23
REMARK    9  A    between atoms: _26  and  _28
REMARK   10  A    between atoms: _28  and  _29
REMARK   11  A    between atoms: _28  and  _31
REMARK   12  A    between atoms: _31  and  _32
REMARK   13  A    between atoms: _35  and  _37
REMARK   14  A    between atoms: _37  and  _38
REMARK   15  A    between atoms: _37  and  _40
REMARK   16  A    between atoms: _40  and  _41
REMARK   17  A    between atoms: _41  and  _42
REMARK   18  A    between atoms: _45  and  _47
REMARK   19  A    between atoms: _47  and  _48
REMARK   20  A    between atoms: _47  and  _50
REMARK   21  A    between atoms: _50  and  _51
REMARK   22  A    between atoms: _56  and  _58
REMARK   23  A    between atoms: _58  and  _59
REMARK   24  A    between atoms: _58  and  _61
REMARK   25  A    between atoms: _61  and  _62
REMARK   26  A    between atoms: _62  and  _63
REMARK   27  A    between atoms: _63  and  _64
REMARK   28  A    between atoms: _73  and  _75
REMARK   29  A    between atoms: _75  and  _76
REMARK   30  A    between atoms: _75  and  _78
REMARK   31  A    between atoms: _78  and  _79
REMARK   32  A    between atoms: _83  and  _84
REMARK   33  A    between atoms: _89  and  _91
REMARK   34  A    between atoms: _91  and  _92
REMARK   35  A    between atoms: _91  and  _94
REMARK   36  A    between atoms: _94  and  _95
REMARK   37  A    between atoms: _95  and  _96
REMARK   38  A    between atoms: _98  and  _100
REMARK   39  A    between atoms: _100  and  _101
REMARK   40  A    between atoms: _100  and  _103
REMARK   41  A    between atoms: _103  and  _104
REMARK   42  A    between atoms: _104  and  _105
REMARK   43  A    between atoms: _110  and  _112
REMARK   44  A    between atoms: _112  and  _113
REMARK   45  A    between atoms: _112  and  _115
REMARK   46  A    between atoms: _115  and  _116
REMARK   47  A    between atoms: _119  and  _121
REMARK   48  A    between atoms: _121  and  _122
REMARK   49  A    between atoms: _121  and  _124
REMARK   50  A    between atoms: _124  and  _125
REMARK   51  A    between atoms: _125  and  _126
REMARK   52  A    between atoms: _126  and  _127
REMARK   53  A    between atoms: _127  and  CO_294
REMARK   54  A    between atoms: _129  and  _131
REMARK   55  A    between atoms: _131  and  _132
REMARK   56  A    between atoms: _131  and  _134
REMARK   57  A    between atoms: _134  and  _135
REMARK   58  A    between atoms: _141  and  _143
REMARK   59  A    between atoms: _143  and  _144
REMARK   60  A    between atoms: _143  and  _146
REMARK   61  A    between atoms: _146  and  _147
REMARK   62  A    between atoms: _150  and  _152
REMARK   63  A    between atoms: _152  and  _153
REMARK   64  A    between atoms: _156  and  _157
REMARK   65  A    between atoms: _162  and  _164
REMARK   66  A    between atoms: _164  and  _165
REMARK   67  A    between atoms: _168  and  _170
REMARK   68  A    between atoms: _170  and  _171
REMARK   69  A    between atoms: _170  and  _173
REMARK   70  A    between atoms: _173  and  _174
REMARK   71  A    between atoms: _174  and  _176
REMARK   72  A    between atoms: _176  and  CO_294
REMARK   73  A    between atoms: _177  and  _179
REMARK   74  A    between atoms: _179  and  _180
REMARK   75  A    between atoms: _179  and  _182
REMARK   76  A    between atoms: _182  and  _183
REMARK   77  A    between atoms: _186  and  _188
REMARK   78  A    between atoms: _188  and  _189
REMARK   79  A    between atoms: _188  and  _191
REMARK   80  A    between atoms: _191  and  _192
REMARK   81  A    between atoms: _194  and  _196
REMARK   82  A    between atoms: _196  and  _197
REMARK   83  A    between atoms: _200  and  _202
REMARK   84  A    between atoms: _202  and  _203
REMARK   85  A    between atoms: _202  and  _205
REMARK   86  A    between atoms: _205  and  _206
REMARK   87  A    between atoms: _209  and  _211
REMARK   88  A    between atoms: _211  and  _212
REMARK   89  A    between atoms: _215  and  _216
REMARK   90  A    between atoms: _221  and  _223
REMARK   91  A    between atoms: _223  and  _224
REMARK   92  A    between atoms: _223  and  _226
REMARK   93  A    between atoms: _226  and  _227
REMARK   94  A    between atoms: _230  and  _232
REMARK   95  A    between atoms: _232  and  _233
REMARK   96  A    between atoms: _232  and  _235
REMARK   97  A    between atoms: _235  and  _236
REMARK   98  A    between atoms: _239  and  _241
REMARK   99  A    between atoms: _241  and  _242
REMARK  100  A    between atoms: _241  and  _244
REMARK  101  A    between atoms: _244  and  _245
REMARK  102  A    between atoms: _248  and  _250
REMARK  103  A    between atoms: _250  and  _251
REMARK  104  A    between atoms: _254  and  _256
REMARK  105  A    between atoms: _256  and  _257
REMARK  106  A    between atoms: _256  and  _259
REMARK  107  A    between atoms: _262  and  _264
REMARK  108  A    between atoms: _264  and  _265
REMARK  109  A    between atoms: _267  and  _269
REMARK  110  A    between atoms: _269  and  _270
REMARK  111  A    between atoms: _269  and  _272
REMARK  112  A    between atoms: _275  and  _277
REMARK  113  A    between atoms: _277  and  _278
REMARK  114  A    between atoms: _280  and  _282
REMARK  115  A    between atoms: _282  and  _283
REMARK  116  A    between atoms: _282  and  _285
REMARK  117  A    between atoms: _285  and  _286
REMARK  118  A    between atoms: _288  and  _290
REMARK  119  A    between atoms: _290  and  _291
REMARK                            x       y       z     vdW  Elec       q    Type
REMARK                         _______ _______ _______ _____ _____    ______ ____
ROOT
ATOM      1  CA  LEU A   1     -40.263 -39.015 -17.959  0.00  0.00    +0.133 C 
ENDROOT
BRANCH   1   2
ATOM      2  N   LEU A   1     -38.831 -39.331 -17.833  0.00  0.00    -0.239 NA
ATOM      3  H   LEU A   1     -38.147 -38.549 -17.873  0.00  0.00    +0.142 HD
ENDBRANCH   1   2
BRANCH   1   4
ATOM      4  C   LEU A   1     -40.477 -38.623 -19.439  0.00  0.00    +0.224 C 
ATOM      5  O   LEU A   1     -40.134 -37.525 -19.864  0.00  0.00    -0.287 OA
ENDBRANCH   1   4
BRANCH   1   6
ATOM      6  CB  LEU A   1     -40.642 -37.931 -17.002  0.00  0.00    +0.025 C 
BRANCH   6   7
ATOM      7  CG  LEU A   1     -42.094 -37.448 -17.119  0.00  0.00    +0.002 C 
ATOM      8  CD2 LEU A   1     -42.376 -36.298 -16.221  0.00  0.00    +0.000 C 
ATOM      9  CD1 LEU A   1     -42.963 -38.648 -16.786  0.00  0.00    +0.000 C 
ENDBRANCH   6   7
ENDBRANCH   1   6
TORSDOF 4
REMARK  Name = ../refined-set-2016/4b5s/4b5s_pocket.pdb
REMARK  119 active torsions:
REMARK  status: ('A' for Active; 'I' for Inactive)
REMARK    1  A    between atoms: _1  and  _3
REMARK    2  A    between atoms: _3  and  _4
REMARK    3  A    between atoms: _3  and  _6
REMARK    4  A    between atoms: _6  and  _7
REMARK    5  A    between atoms: _17  and  _19
REMARK    6  A    between atoms: _19  and  _20
REMARK    7  A    between atoms: _19  and  _22
REMARK    8  A    between atoms: _22  and  _23
REMARK    9  A    between atoms: _26  and  _28
REMARK   10  A    between atoms: _28  and  _29
REMARK   11  A    between atoms: _28  and  _31
REMARK   12  A    between atoms: _31  and  _32
REMARK   13  A    between atoms: _35  and  _37
REMARK   14  A    between atoms: _37  and  _38
REMARK   15  A    between atoms: _37  and  _40
REMARK   16  A    between atoms: _40  and  _41
REMARK   17  A    between atoms: _41  and  _42
REMARK   18  A    between atoms: _45  and  _47
REMARK   19  A    between atoms: _47  and  _48
REMARK   20  A    between atoms: _47  and  _50
REMARK   21  A    between atoms: _50  and  _51
REMARK   22  A    between atoms: _56  and  _58
REMARK   23  A    between atoms: _58  and  _59
REMARK   24  A    between atoms: _58  and  _61
REMARK   25  A    between atoms: _61  and  _62
REMARK   26  A    between atoms: _62  and  _63
REMARK   27  A    between atoms: _63  and  _64
REMARK   28  A    between atoms: _73  and  _75
REMARK   29  A    between atoms: _75  and  _76
REMARK   30  A    between atoms: _75  and  _78
REMARK   31  A    between atoms: _78  and  _79
REMARK   32  A    between atoms: _83  and  _84
REMARK   33  A    between atoms: _89  and  _91
REMARK   34  A    between atoms: _91  and  _92
REMARK   35  A    between atoms: _91  and  _94
REMARK   36  A    between atoms: _94  and  _95
REMARK   37  A    between atoms: _95  and  _96
REMARK   38  A    between atoms: _98  and  _100
REMARK   39  A    between atoms: _100  and  _101
REMARK   40  A    between atoms: _100  and  _103
REMARK   41  A    between atoms: _103  and  _104
REMARK   42  A    between atoms: _104  and  _105
REMARK   43  A    between atoms: _110  and  _112
REMARK   44  A    between atoms: _112  and  _113
REMARK   45  A    between atoms: _112  and  _115
REMARK   46  A    between atoms: _115  and  _116
REMARK   47  A    between atoms: _119  and  _121
REMARK   48  A    between atoms: _121  and  _122
REMARK   49  A    between atoms: _121  and  _124
REMARK   50  A    between atoms: _124  and  _125
REMARK   51  A    between atoms: _125  and  _126
REMARK   52  A    between atoms: _126  and  _127
REMARK   53  A    between atoms: _127  and  CO_294
REMARK   54  A    between atoms: _129  and  _131
REMARK   55  A    between atoms: _131  and  _132
REMARK   56  A    between atoms: _131  and  _134
REMARK   57  A    between atoms: _134  and  _135
REMARK   58  A    between atoms: _141  and  _143
REMARK   59  A    between atoms: _143  and  _144
REMARK   60  A    between atoms: _143  and  _146
REMARK   61  A    between atoms: _146  and  _147
REMARK   62  A    between atoms: _150  and  _152
REMARK   63  A    between atoms: _152  and  _153
REMARK   64  A    between atoms: _156  and  _157
REMARK   65  A    between atoms: _162  and  _164
REMARK   66  A    between atoms: _164  and  _165
REMARK   67  A    between atoms: _168  and  _170
REMARK   68  A    between atoms: _170  and  _171
REMARK   69  A    between atoms: _170  and  _173
REMARK   70  A    between atoms: _173  and  _174
REMARK   71  A    between atoms: _174  and  _176
REMARK   72  A    between atoms: _176  and  CO_294
REMARK   73  A    between atoms: _177  and  _179
REMARK   74  A    between atoms: _179  and  _180
REMARK   75  A    between atoms: _179  and  _182
REMARK   76  A    between atoms: _182  and  _183
REMARK   77  A    between atoms: _186  and  _188
REMARK   78  A    between atoms: _188  and  _189
REMARK   79  A    between atoms: _188  and  _191
REMARK   80  A    between atoms: _191  and  _192
REMARK   81  A    between atoms: _194  and  _196
REMARK   82  A    between atoms: _196  and  _197
REMARK   83  A    between atoms: _200  and  _202
REMARK   84  A    between atoms: _202  and  _203
REMARK   85  A    between atoms: _202  and  _205
REMARK   86  A    between atoms: _205  and  _206
REMARK   87  A    between atoms: _209  and  _211
REMARK   88  A    between atoms: _211  and  _212
REMARK   89  A    between atoms: _215  and  _216
REMARK   90  A    between atoms: _221  and  _223
REMARK   91  A    between atoms: _223  and  _224
REMARK   92  A    between atoms: _223  and  _226
REMARK   93  A    between atoms: _226  and  _227
REMARK   94  A    between atoms: _230  and  _232
REMARK   95  A    between atoms: _232  and  _233
REMARK   96  A    between atoms: _232  and  _235
REMARK   97  A    between atoms: _235  and  _236
REMARK   98  A    between atoms: _239  and  _241
REMARK   99  A    between atoms: _241  and  _242
REMARK  100  A    between atoms: _241  and  _244
REMARK  101  A    between atoms: _244  and  _245
REMARK  102  A    between atoms: _248  and  _250
REMARK  103  A    between atoms: _250  and  _251
REMARK  104  A    between atoms: _254  and  _256
REMARK  105  A    between atoms: _256  and  _257
REMARK  106  A    between atoms: _256  and  _259
REMARK  107  A    between atoms: _262  and  _264
REMARK  108  A    between atoms: _264  and  _265
REMARK  109  A    between atoms: _267  and  _269
REMARK  110  A    between atoms: _269  and  _270
REMARK  111  A    between atoms: _269  and  _272
REMARK  112  A    between atoms: _275  and  _277
REMARK  113  A    between atoms: _277  and  _278
REMARK  114  A    between atoms: _280  and  _282
REMARK  115  A    between atoms: _282  and  _283
REMARK  116  A    between atoms: _282  and  _285
REMARK  117  A    between atoms: _285  and  _286
REMARK  118  A    between atoms: _288  and  _290
REMARK  119  A    between atoms: _290  and  _291
REMARK                            x       y       z     vdW  Elec       q    Type
REMARK                         _______ _______ _______ _____ _____    ______ ____
ROOT
ATOM      1  C   PRO A   1     -44.445 -37.438 -24.228  0.00  0.00    +0.239 C 
ATOM      2  N   MET A   2     -45.757 -37.216 -24.230  0.00  0.00    -0.298 N 
ATOM      3  H   MET A   2     -46.198 -36.822 -23.375  0.00  0.00    +0.150 HD
ATOM      4  O   PRO A   1     -43.875 -38.113 -25.088  0.00  0.00    -0.274 OA
ENDROOT
BRANCH   1   6
ATOM      5  N   PRO A   1     -42.465 -37.510 -22.699  0.00  0.00    -0.210 NA
ATOM      6  CA  PRO A   1     -43.726 -36.836 -23.029  0.00  0.00    +0.149 C 
ATOM      7  CB  PRO A   1     -43.298 -35.398 -23.371  0.00  0.00    +0.028 C 
ATOM      8  CG  PRO A   1     -41.893 -35.511 -23.746  0.00  0.00    +0.021 C 
ATOM      9  CD  PRO A   1     -41.290 -36.687 -23.067  0.00  0.00    +0.089 C 
ENDBRANCH   1   6
BRANCH   2  10
ATOM     10  CA  MET A   2     -46.611 -37.507 -25.399  0.00  0.00    +0.138 C 
BRANCH  10  11
ATOM     11  C   MET A   2     -46.529 -38.921 -25.920  0.00  0.00    +0.227 C 
ATOM     12  O   MET A   2     -46.360 -39.165 -27.128  0.00  0.00    -0.286 OA
ENDBRANCH  10  11
BRANCH  10  13
ATOM     13  CB  MET A   2     -46.324 -36.511 -26.525  0.00  0.00    +0.039 C 
BRANCH  13  14
ATOM     14  CG  MET A   2     -46.875 -35.108 -26.227  0.00  0.00    +0.060 C 
BRANCH  14  15
ATOM     15  SD  MET A   2     -48.717 -34.961 -26.198  0.00  0.00    -0.139 S 
ATOM     16  CE  MET A   2     -49.168 -36.352 -27.166  0.00  0.00    +0.069 C 
ENDBRANCH  14  15
ENDBRANCH  13  14
ENDBRANCH  10  13
ENDBRANCH   2  10
TORSDOF 6
REMARK  Name = ../refined-set-2016/4b5s/4b5s_pocket.pdb
REMARK  119 active torsions:
REMARK  status: ('A' for Active; 'I' for Inactive)
REMARK    1  A    between atoms: _1  and  _3
REMARK    2  A    between atoms: _3  and  _4
REMARK    3  A    between atoms: _3  and  _6
REMARK    4  A    between atoms: _6  and  _7
REMARK    5  A    between atoms: _17  and  _19
REMARK    6  A    between atoms: _19  and  _20
REMARK    7  A    between atoms: _19  and  _22
REMARK    8  A    between atoms: _22  and  _23
REMARK    9  A    between atoms: _26  and  _28
REMARK   10  A    between atoms: _28  and  _29
REMARK   11  A    between atoms: _28  and  _31
REMARK   12  A    between atoms: _31  and  _32
REMARK   13  A    between atoms: _35  and  _37
REMARK   14  A    between atoms: _37  and  _38
REMARK   15  A    between atoms: _37  and  _40
REMARK   16  A    between atoms: _40  and  _41
REMARK   17  A    between atoms: _41  and  _42
REMARK   18  A    between atoms: _45  and  _47
REMARK   19  A    between atoms: _47  and  _48
REMARK   20  A    between atoms: _47  and  _50
REMARK   21  A    between atoms: _50  and  _51
REMARK   22  A    between atoms: _56  and  _58
REMARK   23  A    between atoms: _58  and  _59
REMARK   24  A    between atoms: _58  and  _61
REMARK   25  A    between atoms: _61  and  _62
REMARK   26  A    between atoms: _62  and  _63
REMARK   27  A    between atoms: _63  and  _64
REMARK   28  A    between atoms: _73  and  _75
REMARK   29  A    between atoms: _75  and  _76
REMARK   30  A    between atoms: _75  and  _78
REMARK   31  A    between atoms: _78  and  _79
REMARK   32  A    between atoms: _83  and  _84
REMARK   33  A    between atoms: _89  and  _91
REMARK   34  A    between atoms: _91  and  _92
REMARK   35  A    between atoms: _91  and  _94
REMARK   36  A    between atoms: _94  and  _95
REMARK   37  A    between atoms: _95  and  _96
REMARK   38  A    between atoms: _98  and  _100
REMARK   39  A    between atoms: _100  and  _101
REMARK   40  A    between atoms: _100  and  _103
REMARK   41  A    between atoms: _103  and  _104
REMARK   42  A    between atoms: _104  and  _105
REMARK   43  A    between atoms: _110  and  _112
REMARK   44  A    between atoms: _112  and  _113
REMARK   45  A    between atoms: _112  and  _115
REMARK   46  A    between atoms: _115  and  _116
REMARK   47  A    between atoms: _119  and  _121
REMARK   48  A    between atoms: _121  and  _122
REMARK   49  A    between atoms: _121  and  _124
REMARK   50  A    between atoms: _124  and  _125
REMARK   51  A    between atoms: _125  and  _126
REMARK   52  A    between atoms: _126  and  _127
REMARK   53  A    between atoms: _127  and  CO_294
REMARK   54  A    between atoms: _129  and  _131
REMARK   55  A    between atoms: _131  and  _132
REMARK   56  A    between atoms: _131  and  _134
REMARK   57  A    between atoms: _134  and  _135
REMARK   58  A    between atoms: _141  and  _143
REMARK   59  A    between atoms: _143  and  _144
REMARK   60  A    between atoms: _143  and  _146
REMARK   61  A    between atoms: _146  and  _147
REMARK   62  A    between atoms: _150  and  _152
REMARK   63  A    between atoms: _152  and  _153
REMARK   64  A    between atoms: _156  and  _157
REMARK   65  A    between atoms: _162  and  _164
REMARK   66  A    between atoms: _164  and  _165
REMARK   67  A    between atoms: _168  and  _170
REMARK   68  A    between atoms: _170  and  _171
REMARK   69  A    between atoms: _170  and  _173
REMARK   70  A    between atoms: _173  and  _174
REMARK   71  A    between atoms: _174  and  _176
REMARK   72  A    between atoms: _176  and  CO_294
REMARK   73  A    between atoms: _177  and  _179
REMARK   74  A    between atoms: _179  and  _180
REMARK   75  A    between atoms: _179  and  _182
REMARK   76  A    between atoms: _182  and  _183
REMARK   77  A    between atoms: _186  and  _188
REMARK   78  A    between atoms: _188  and  _189
REMARK   79  A    between atoms: _188  and  _191
REMARK   80  A    between atoms: _191  and  _192
REMARK   81  A    between atoms: _194  and  _196
REMARK   82  A    between atoms: _196  and  _197
REMARK   83  A    between atoms: _200  and  _202
REMARK   84  A    between atoms: _202  and  _203
REMARK   85  A    between atoms: _202  and  _205
REMARK   86  A    between atoms: _205  and  _206
REMARK   87  A    between atoms: _209  and  _211
REMARK   88  A    between atoms: _211  and  _212
REMARK   89  A    between atoms: _215  and  _216
REMARK   90  A    between atoms: _221  and  _223
REMARK   91  A    between atoms: _223  and  _224
REMARK   92  A    between atoms: _223  and  _226
REMARK   93  A    between atoms: _226  and  _227
REMARK   94  A    between atoms: _230  and  _232
REMARK   95  A    between atoms: _232  and  _233
REMARK   96  A    between atoms: _232  and  _235
REMARK   97  A    between atoms: _235  and  _236
REMARK   98  A    between atoms: _239  and  _241
REMARK   99  A    between atoms: _241  and  _242
REMARK  100  A    between atoms: _241  and  _244
REMARK  101  A    between atoms: _244  and  _245
REMARK  102  A    between atoms: _248  and  _250
REMARK  103  A    between atoms: _250  and  _251
REMARK  104  A    between atoms: _254  and  _256
REMARK  105  A    between atoms: _256  and  _257
REMARK  106  A    between atoms: _256  and  _259
REMARK  107  A    between atoms: _262  and  _264
REMARK  108  A    between atoms: _264  and  _265
REMARK  109  A    between atoms: _267  and  _269
REMARK  110  A    between atoms: _269  and  _270
REMARK  111  A    between atoms: _269  and  _272
REMARK  112  A    between atoms: _275  and  _277
REMARK  113  A    between atoms: _277  and  _278
REMARK  114  A    between atoms: _280  and  _282
REMARK  115  A    between atoms: _282  and  _283
REMARK  116  A    between atoms: _282  and  _285
REMARK  117  A    between atoms: _285  and  _286
REMARK  118  A    between atoms: _288  and  _290
REMARK  119  A    between atoms: _290  and  _291
REMARK                            x       y       z     vdW  Elec       q    Type
REMARK                         _______ _______ _______ _____ _____    ______ ____
ROOT
ATOM      1  C   UNK A   3     -51.930 -30.958 -21.844  0.00  0.00    +0.000 C 
ENDROOT
BRANCH   1   2
ATOM      2  N   UNK A   3     -51.757 -30.447 -20.481  0.00  0.00    +0.000 N 
ATOM      3  H   UNK A   3     -50.954 -30.784 -19.913  0.00  0.00    +0.000 HD
ATOM      4  C   ALA A   5     -52.602 -29.560 -19.948  0.00  0.00    +0.000 C 
ATOM      5  O   ALA A   5     -53.565 -29.109 -20.555  0.00  0.00    +0.000 OA
BRANCH   4   6
ATOM      6  CA  ALA A   5     -52.354 -29.130 -18.501  0.00  0.00    +0.000 C 
ATOM      7  CB  ALA A   5     -51.025 -28.359 -18.389  0.00  0.00    +0.000 C 
BRANCH   6   8
ATOM      8  N   ALA A   5     -52.348 -30.300 -17.615  0.00  0.00    +0.000 N 
ATOM      9  H   ALA A   5     -51.472 -30.538 -17.108  0.00  0.00    +0.000 HD
ATOM     10  C   PRO A   4     -53.419 -31.069 -17.435  0.00  0.00    +0.000 C 
ATOM     11  O   PRO A   4     -54.504 -30.900 -17.987  0.00  0.00    +0.000 OA
BRANCH  10  12
ATOM     12  CA  PRO A   4     -53.284 -32.269 -16.506  0.00  0.00    +0.000 C 
ATOM     13  CB  PRO A   4     -53.433 -31.812 -15.065  0.00  0.00    +0.000 C 
ATOM     14  CG  PRO A   4     -52.402 -32.589 -14.293  0.00  0.00    +0.000 C 
ATOM     15  CD  PRO A   4     -51.270 -32.773 -15.240  0.00  0.00    +0.000 C 
ATOM     16  N   PRO A   4     -51.950 -32.874 -16.547  0.00  0.00    +0.000 N 
ATOM     17  C   UNK A   3     -51.489 -33.489 -17.643  0.00  0.00    +0.000 C 
ATOM     18  O   UNK A   3     -52.095 -33.512 -18.701  0.00  0.00    +0.000 OA
BRANCH  17  19
ATOM     19  C   UNK A   3     -50.160 -34.231 -17.526  0.00  0.00    +0.000 C 
BRANCH  19  20
ATOM     20  N   UNK A   3     -50.410 -35.651 -17.407  0.00  0.00    +0.000 N 
ATOM     21  C   ILE A   2     -50.398 -36.266 -16.225  0.00  0.00    +0.000 C 
ATOM     22  O   ILE A   2     -50.092 -35.683 -15.157  0.00  0.00    +0.000 OA
ATOM     23  H   UNK A   3     -50.604 -36.205 -18.265  0.00  0.00    +0.000 HD
BRANCH  21  24
ATOM     24  CA  ILE A   2     -50.751 -37.739 -16.271  0.00  0.00    +0.000 C 
BRANCH  24  25
ATOM     25  N   ILE A   2     -49.702 -38.507 -15.633  0.00  0.00    +0.000 N 
ATOM     26  H   ILE A   2     -49.657 -38.545 -14.595  0.00  0.00    +0.000 HD
ATOM     27  C   PHE A   1     -48.801 -39.161 -16.346  0.00  0.00    +0.000 C 
ATOM     28  O   PHE A   1     -48.855 -39.225 -17.577  0.00  0.00    +0.000 OA
BRANCH  27  29
ATOM     29  CA  PHE A   1     -47.707 -39.874 -15.561  0.00  0.00    +0.000 C 
BRANCH  29  30
ATOM     30  N   PHE A   1     -47.552 -41.183 -16.112  0.00  0.00    +0.000 NA
ATOM     31  H   PHE A   1     -47.117 -41.277 -17.052  0.00  0.00    +0.000 HD
ENDBRANCH  29  30
BRANCH  29  32
ATOM     32  CB  PHE A   1     -46.345 -39.126 -15.701  0.00  0.00    +0.000 C 
BRANCH  32  33
ATOM     33  CG  PHE A   1     -46.380 -37.667 -15.362  0.00  0.00    +0.000 A 
ATOM     34  CD2 PHE A   1     -45.943 -37.216 -14.120  0.00  0.00    +0.000 A 
ATOM     35  CE2 PHE A   1     -45.950 -35.872 -13.820  0.00  0.00    +0.000 A 
ATOM     36  CZ  PHE A   1     -46.338 -34.975 -14.724  0.00  0.00    +0.000 A 
ATOM     37  CE1 PHE A   1     -46.762 -35.389 -15.962  0.00  0.00    +0.000 A 
ATOM     38  CD1 PHE A   1     -46.777 -36.727 -16.270  0.00  0.00    +0.000 A 
ENDBRANCH  32  33
ENDBRANCH  29  32
ENDBRANCH  27  29
ENDBRANCH  24  25
BRANCH  24  39
ATOM     39  CB  ILE A   2     -52.151 -37.986 -15.614  0.00  0.00    +0.000 C 
ATOM     40  CG2 ILE A   2     -53.211 -37.218 -16.373  0.00  0.00    +0.000 C 
BRANCH  39  41
ATOM     41  CG1 ILE A   2     -52.508 -39.461 -15.646  0.00  0.00    +0.000 C 
ATOM     42  CD1 ILE A   2     -52.890 -40.006 -14.330  0.00  0.00    +0.000 C 
ENDBRANCH  39  41
ENDBRANCH  24  39
ENDBRANCH  21  24
ENDBRANCH  19  20
ENDBRANCH  17  19
ENDBRANCH  10  12
ENDBRANCH   6   8
ENDBRANCH   4   6
ENDBRANCH   1   2
BRANCH   1  43
ATOM     43  C   UNK A   3     -53.261 -31.723 -21.987  0.00  0.00    +0.000 C 
ATOM     44  N   LEU A   7     -53.622 -32.511 -20.990  0.00  0.00    +0.000 N 
ATOM     45  H   LEU A   7     -53.056 -32.555 -20.119  0.00  0.00    +0.000 HD
ATOM     46  O   UNK A   3     -53.961 -31.608 -22.997  0.00  0.00    +0.000 OA
BRANCH  44  47
ATOM     47  CA  LEU A   7     -54.818 -33.311 -21.132  0.00  0.00    +0.000 C 
BRANCH  47  48
ATOM     48  C   LEU A   7     -56.070 -32.414 -21.173  0.00  0.00    +0.000 C 
ATOM     49  N   SER A   8     -56.142 -31.444 -20.274  0.00  0.00    +0.000 N 
ATOM     50  H   SER A   8     -55.374 -31.316 -19.584  0.00  0.00    +0.000 HD
ATOM     51  O   LEU A   7     -56.977 -32.625 -21.996  0.00  0.00    +0.000 OA
BRANCH  49  52
ATOM     52  CA  SER A   8     -57.298 -30.556 -20.252  0.00  0.00    +0.000 C 
BRANCH  52  53
ATOM     53  C   SER A   8     -57.377 -29.803 -21.575  0.00  0.00    +0.000 C 
ATOM     54  N   ALA A   9     -56.230 -29.349 -22.080  0.00  0.00    +0.000 N 
ATOM     55  H   ALA A   9     -55.348 -29.451 -21.539  0.00  0.00    +0.000 HD
ATOM     56  O   SER A   8     -58.461 -29.648 -22.143  0.00  0.00    +0.000 OA
BRANCH  54  57
ATOM     57  CA  ALA A   9     -56.212 -28.706 -23.399  0.00  0.00    +0.000 C 
ATOM     58  CB  ALA A   9     -54.801 -28.213 -23.771  0.00  0.00    +0.000 C 
BRANCH  57  59
ATOM     59  C   ALA A   9     -56.754 -29.650 -24.460  0.00  0.00    +0.000 C 
ATOM     60  N   ASP A  10     -56.315 -30.906 -24.477  0.00  0.00    +0.000 N 
ATOM     61  H   ASP A  10     -55.617 -31.223 -23.774  0.00  0.00    +0.000 HD
ATOM     62  O   ALA A   9     -57.579 -29.242 -25.274  0.00  0.00    +0.000 OA
BRANCH  60  63
ATOM     63  CA  ASP A  10     -56.818 -31.846 -25.492  0.00  0.00    +0.000 C 
BRANCH  63  64
ATOM     64  C   ASP A  10     -58.315 -32.096 -25.373  0.00  0.00    +0.000 C 
ATOM     65  O   ASP A  10     -58.974 -32.393 -26.369  0.00  0.00    +0.000 OA
ENDBRANCH  63  64
BRANCH  63  66
ATOM     66  CB  ASP A  10     -56.122 -33.212 -25.475  0.00  0.00    +0.000 C 
BRANCH  66  67
ATOM     67  CG  ASP A  10     -56.426 -34.028 -26.711  0.00  0.00    +0.000 C 
ATOM     68  OD2 ASP A  10     -56.971 -35.167 -26.597  0.00  0.00    +0.000 OA
ATOM     69  OD1 ASP A  10     -56.107 -33.527 -27.822  0.00  0.00    +0.000 OA
ENDBRANCH  66  67
ENDBRANCH  63  66
ENDBRANCH  60  63
ENDBRANCH  57  59
ENDBRANCH  54  57
ENDBRANCH  52  53
BRANCH  52  70
ATOM     70  CB  SER A   8     -57.276 -29.585 -19.066  0.00  0.00    +0.000 C 
BRANCH  70  71
ATOM     71  OG  SER A   8     -56.087 -28.807 -19.006  0.00  0.00    +0.000 OA
ATOM     72  H   SER A   8     -55.305 -29.408 -18.918  0.00  0.00    +0.000 HD
ENDBRANCH  70  71
ENDBRANCH  52  70
ENDBRANCH  49  52
ENDBRANCH  47  48
BRANCH  47  73
ATOM     73  CB  LEU A   7     -54.928 -34.287 -19.980  0.00  0.00    +0.000 C 
BRANCH  73  74
ATOM     74  CG  LEU A   7     -56.195 -35.134 -19.975  0.00  0.00    +0.000 C 
ATOM     75  CD2 LEU A   7     -56.270 -35.894 -18.665  0.00  0.00    +0.000 C 
ATOM     76  CD1 LEU A   7     -56.290 -36.103 -21.149  0.00  0.00    +0.000 C 
ENDBRANCH  73  74
ENDBRANCH  47  73
ENDBRANCH  44  47
ENDBRANCH   1  43
BRANCH   1  77
ATOM     77  C   UNK A   3     -50.750 -31.844 -22.275  0.00  0.00    +0.000 C 
BRANCH  77  78
ATOM     78  C   UNK A   3     -49.578 -31.035 -22.895  0.00  0.00    +0.000 C 
ATOM     79  O   UNK A   3     -49.810 -30.201 -23.786  0.00  0.00    +0.000 OA
BRANCH  78  80
ATOM     80  O   UNK A   3     -48.398 -31.239 -22.525  0.00  0.00    +0.000 OA
BRANCH  80  81
ATOM     81 CO   UNK A   3     -47.380 -32.061 -20.739  0.00  0.00    +0.000 Co
ATOM     82  O   UNK A   3     -45.547 -32.830 -21.915  0.00  0.00    +0.000 OA
BRANCH  81  83
ATOM     83  O   UNK A   3     -48.177 -34.092 -21.198  0.00  0.00    +0.000 OA
BRANCH  83  84
ATOM     84  C   UNK A   3     -47.977 -34.967 -22.061  0.00  0.00    +0.000 C 
ATOM     85  O   UNK A   3     -46.910 -35.059 -22.741  0.00  0.00    +0.000 OA
BRANCH  84  86
ATOM     86  C   UNK A   3     -49.071 -36.011 -22.207  0.00  0.00    +0.000 C 
BRANCH  86  87
ATOM     87  C   UNK A   3     -50.339 -35.488 -22.790  0.00  0.00    +0.000 C 
BRANCH  87  88
ATOM     88  C   UNK A   3     -51.575 -36.277 -22.293  0.00  0.00    +0.000 C 
BRANCH  88  91
ATOM     89  C   ILE A   2     -51.074 -38.322 -21.056  0.00  0.00    +0.000 C 
ATOM     90  O   ILE A   2     -51.259 -37.766 -19.963  0.00  0.00    +0.000 OA
ATOM     91  N   UNK A   3     -51.290 -37.702 -22.226  0.00  0.00    +0.000 N 
ATOM     92  H   UNK A   3     -51.253 -38.254 -23.107  0.00  0.00    +0.000 HD
BRANCH  89  93
ATOM     93  CA  ILE A   2     -50.425 -39.683 -21.170  0.00  0.00    +0.000 C 
BRANCH  93  95
ATOM     94  C   PHE A   1     -47.979 -39.572 -21.006  0.00  0.00    +0.000 C 
ATOM     95  N   ILE A   2     -49.171 -39.631 -20.408  0.00  0.00    +0.000 N 
ATOM     96  H   ILE A   2     -49.213 -39.640 -19.369  0.00  0.00    +0.000 HD
ATOM     97  O   PHE A   1     -47.832 -39.751 -22.210  0.00  0.00    +0.000 OA
BRANCH  94  98
ATOM     98  CA  PHE A   1     -46.778 -39.330 -20.091  0.00  0.00    +0.000 C 
BRANCH  98  99
ATOM     99  N   PHE A   1     -45.707 -40.328 -20.297  0.00  0.00    +0.000 NA
ATOM    100  H   PHE A   1     -44.990 -40.155 -21.030  0.00  0.00    +0.000 HD
ENDBRANCH  98  99
BRANCH  98 101
ATOM    101  CB  PHE A   1     -46.277 -37.927 -20.365  0.00  0.00    +0.000 C 
BRANCH 101 102
ATOM    102  CG  PHE A   1     -45.247 -37.440 -19.407  0.00  0.00    +0.000 C 
BRANCH 102 103
ATOM    103  CD  PHE A   1     -45.076 -35.923 -19.459  0.00  0.00    +0.000 C 
ATOM    104  NE2 PHE A   1     -46.175 -35.187 -19.427  0.00  0.00    +0.000 N 
ATOM    105 HE21 PHE A   1     -47.107 -35.646 -19.386  0.00  0.00    +0.000 HD
ATOM    106 HE22 PHE A   1     -46.107 -34.149 -19.443  0.00  0.00    +0.000 HD
ATOM    107  OE1 PHE A   1     -43.969 -35.433 -19.507  0.00  0.00    +0.000 OA
ENDBRANCH 102 103
ENDBRANCH 101 102
ENDBRANCH  98 101
ENDBRANCH  94  98
ENDBRANCH  93  95
BRANCH  93 108
ATOM    108  CB  ILE A   2     -51.317 -40.859 -20.729  0.00  0.00    +0.000 C 
ATOM    109  CG2 ILE A   2     -50.643 -42.182 -21.067  0.00  0.00    +0.000 C 
BRANCH 108 110
ATOM    110  CG1 ILE A   2     -51.610 -40.757 -19.248  0.00  0.00    +0.000 C 
ATOM    111  CD1 ILE A   2     -52.681 -41.777 -18.780  0.00  0.00    +0.000 C 
ENDBRANCH 108 110
ENDBRANCH  93 108
ENDBRANCH  89  93
ENDBRANCH  88  91
BRANCH  88 112
ATOM    112  C   UNK A   3     -52.716 -35.954 -23.223  0.00  0.00    +0.000 C 
ATOM    113  O   UNK A   3     -52.986 -34.787 -23.463  0.00  0.00    +0.000 OA
ENDBRANCH  88 112
ENDBRANCH  87  88
ENDBRANCH  86  87
ENDBRANCH  84  86
ENDBRANCH  83  84
ENDBRANCH  81  83
ENDBRANCH  80  81
ENDBRANCH  78  80
ENDBRANCH  77  78
ENDBRANCH   1  77
TORSDOF 49
REMARK  Name = ../refined-set-2016/4b5s/4b5s_pocket.pdb
REMARK  119 active torsions:
REMARK  status: ('A' for Active; 'I' for Inactive)
REMARK    1  A    between atoms: _1  and  _3
REMARK    2  A    between atoms: _3  and  _4
REMARK    3  A    between atoms: _3  and  _6
REMARK    4  A    between atoms: _6  and  _7
REMARK    5  A    between atoms: _17  and  _19
REMARK    6  A    between atoms: _19  and  _20
REMARK    7  A    between atoms: _19  and  _22
REMARK    8  A    between atoms: _22  and  _23
REMARK    9  A    between atoms: _26  and  _28
REMARK   10  A    between atoms: _28  and  _29
REMARK   11  A    between atoms: _28  and  _31
REMARK   12  A    between atoms: _31  and  _32
REMARK   13  A    between atoms: _35  and  _37
REMARK   14  A    between atoms: _37  and  _38
REMARK   15  A    between atoms: _37  and  _40
REMARK   16  A    between atoms: _40  and  _41
REMARK   17  A    between atoms: _41  and  _42
REMARK   18  A    between atoms: _45  and  _47
REMARK   19  A    between atoms: _47  and  _48
REMARK   20  A    between atoms: _47  and  _50
REMARK   21  A    between atoms: _50  and  _51
REMARK   22  A    between atoms: _56  and  _58
REMARK   23  A    between atoms: _58  and  _59
REMARK   24  A    between atoms: _58  and  _61
REMARK   25  A    between atoms: _61  and  _62
REMARK   26  A    between atoms: _62  and  _63
REMARK   27  A    between atoms: _63  and  _64
REMARK   28  A    between atoms: _73  and  _75
REMARK   29  A    between atoms: _75  and  _76
REMARK   30  A    between atoms: _75  and  _78
REMARK   31  A    between atoms: _78  and  _79
REMARK   32  A    between atoms: _83  and  _84
REMARK   33  A    between atoms: _89  and  _91
REMARK   34  A    between atoms: _91  and  _92
REMARK   35  A    between atoms: _91  and  _94
REMARK   36  A    between atoms: _94  and  _95
REMARK   37  A    between atoms: _95  and  _96
REMARK   38  A    between atoms: _98  and  _100
REMARK   39  A    between atoms: _100  and  _101
REMARK   40  A    between atoms: _100  and  _103
REMARK   41  A    between atoms: _103  and  _104
REMARK   42  A    between atoms: _104  and  _105
REMARK   43  A    between atoms: _110  and  _112
REMARK   44  A    between atoms: _112  and  _113
REMARK   45  A    between atoms: _112  and  _115
REMARK   46  A    between atoms: _115  and  _116
REMARK   47  A    between atoms: _119  and  _121
REMARK   48  A    between atoms: _121  and  _122
REMARK   49  A    between atoms: _121  and  _124
REMARK   50  A    between atoms: _124  and  _125
REMARK   51  A    between atoms: _125  and  _126
REMARK   52  A    between atoms: _126  and  _127
REMARK   53  A    between atoms: _127  and  CO_294
REMARK   54  A    between atoms: _129  and  _131
REMARK   55  A    between atoms: _131  and  _132
REMARK   56  A    between atoms: _131  and  _134
REMARK   57  A    between atoms: _134  and  _135
REMARK   58  A    between atoms: _141  and  _143
REMARK   59  A    between atoms: _143  and  _144
REMARK   60  A    between atoms: _143  and  _146
REMARK   61  A    between atoms: _146  and  _147
REMARK   62  A    between atoms: _150  and  _152
REMARK   63  A    between atoms: _152  and  _153
REMARK   64  A    between atoms: _156  and  _157
REMARK   65  A    between atoms: _162  and  _164
REMARK   66  A    between atoms: _164  and  _165
REMARK   67  A    between atoms: _168  and  _170
REMARK   68  A    between atoms: _170  and  _171
REMARK   69  A    between atoms: _170  and  _173
REMARK   70  A    between atoms: _173  and  _174
REMARK   71  A    between atoms: _174  and  _176
REMARK   72  A    between atoms: _176  and  CO_294
REMARK   73  A    between atoms: _177  and  _179
REMARK   74  A    between atoms: _179  and  _180
REMARK   75  A    between atoms: _179  and  _182
REMARK   76  A    between atoms: _182  and  _183
REMARK   77  A    between atoms: _186  and  _188
REMARK   78  A    between atoms: _188  and  _189
REMARK   79  A    between atoms: _188  and  _191
REMARK   80  A    between atoms: _191  and  _192
REMARK   81  A    between atoms: _194  and  _196
REMARK   82  A    between atoms: _196  and  _197
REMARK   83  A    between atoms: _200  and  _202
REMARK   84  A    between atoms: _202  and  _203
REMARK   85  A    between atoms: _202  and  _205
REMARK   86  A    between atoms: _205  and  _206
REMARK   87  A    between atoms: _209  and  _211
REMARK   88  A    between atoms: _211  and  _212
REMARK   89  A    between atoms: _215  and  _216
REMARK   90  A    between atoms: _221  and  _223
REMARK   91  A    between atoms: _223  and  _224
REMARK   92  A    between atoms: _223  and  _226
REMARK   93  A    between atoms: _226  and  _227
REMARK   94  A    between atoms: _230  and  _232
REMARK   95  A    between atoms: _232  and  _233
REMARK   96  A    between atoms: _232  and  _235
REMARK   97  A    between atoms: _235  and  _236
REMARK   98  A    between atoms: _239  and  _241
REMARK   99  A    between atoms: _241  and  _242
REMARK  100  A    between atoms: _241  and  _244
REMARK  101  A    between atoms: _244  and  _245
REMARK  102  A    between atoms: _248  and  _250
REMARK  103  A    between atoms: _250  and  _251
REMARK  104  A    between atoms: _254  and  _256
REMARK  105  A    between atoms: _256  and  _257
REMARK  106  A    between atoms: _256  and  _259
REMARK  107  A    between atoms: _262  and  _264
REMARK  108  A    between atoms: _264  and  _265
REMARK  109  A    between atoms: _267  and  _269
REMARK  110  A    between atoms: _269  and  _270
REMARK  111  A    between atoms: _269  and  _272
REMARK  112  A    between atoms: _275  and  _277
REMARK  113  A    between atoms: _277  and  _278
REMARK  114  A    between atoms: _280  and  _282
REMARK  115  A    between atoms: _282  and  _283
REMARK  116  A    between atoms: _282  and  _285
REMARK  117  A    between atoms: _285  and  _286
REMARK  118  A    between atoms: _288  and  _290
REMARK  119  A    between atoms: _290  and  _291
REMARK                            x       y       z     vdW  Elec       q    Type
REMARK                         _______ _______ _______ _____ _____    ______ ____
ROOT
ATOM      1  CA  GLY A   1     -54.922 -26.182 -20.000  0.00  0.00    +0.156 C 
ENDROOT
BRANCH   1   2
ATOM      2  N   GLY A   1     -55.973 -26.079 -21.006  0.00  0.00    -0.238 NA
ATOM      3  H   GLY A   1     -56.239 -26.928 -21.545  0.00  0.00    +0.142 HD
ENDBRANCH   1   2
BRANCH   1   4
ATOM      4  C   GLY A   1     -55.413 -25.917 -18.591  0.00  0.00    +0.226 C 
ATOM      5  O   GLY A   1     -54.595 -25.811 -17.667  0.00  0.00    -0.287 OA
ENDBRANCH   1   4
TORSDOF 2
REMARK  Name = ../refined-set-2016/4b5s/4b5s_pocket.pdb
REMARK  119 active torsions:
REMARK  status: ('A' for Active; 'I' for Inactive)
REMARK    1  A    between atoms: _1  and  _3
REMARK    2  A    between atoms: _3  and  _4
REMARK    3  A    between atoms: _3  and  _6
REMARK    4  A    between atoms: _6  and  _7
REMARK    5  A    between atoms: _17  and  _19
REMARK    6  A    between atoms: _19  and  _20
REMARK    7  A    between atoms: _19  and  _22
REMARK    8  A    between atoms: _22  and  _23
REMARK    9  A    between atoms: _26  and  _28
REMARK   10  A    between atoms: _28  and  _29
REMARK   11  A    between atoms: _28  and  _31
REMARK   12  A    between atoms: _31  and  _32
REMARK   13  A    between atoms: _35  and  _37
REMARK   14  A    between atoms: _37  and  _38
REMARK   15  A    between atoms: _37  and  _40
REMARK   16  A    between atoms: _40  and  _41
REMARK   17  A    between atoms: _41  and  _42
REMARK   18  A    between atoms: _45  and  _47
REMARK   19  A    between atoms: _47  and  _48
REMARK   20  A    between atoms: _47  and  _50
REMARK   21  A    between atoms: _50  and  _51
REMARK   22  A    between atoms: _56  and  _58
REMARK   23  A    between atoms: _58  and  _59
REMARK   24  A    between atoms: _58  and  _61
REMARK   25  A    between atoms: _61  and  _62
REMARK   26  A    between atoms: _62  and  _63
REMARK   27  A    between atoms: _63  and  _64
REMARK   28  A    between atoms: _73  and  _75
REMARK   29  A    between atoms: _75  and  _76
REMARK   30  A    between atoms: _75  and  _78
REMARK   31  A    between atoms: _78  and  _79
REMARK   32  A    between atoms: _83  and  _84
REMARK   33  A    between atoms: _89  and  _91
REMARK   34  A    between atoms: _91  and  _92
REMARK   35  A    between atoms: _91  and  _94
REMARK   36  A    between atoms: _94  and  _95
REMARK   37  A    between atoms: _95  and  _96
REMARK   38  A    between atoms: _98  and  _100
REMARK   39  A    between atoms: _100  and  _101
REMARK   40  A    between atoms: _100  and  _103
REMARK   41  A    between atoms: _103  and  _104
REMARK   42  A    between atoms: _104  and  _105
REMARK   43  A    between atoms: _110  and  _112
REMARK   44  A    between atoms: _112  and  _113
REMARK   45  A    between atoms: _112  and  _115
REMARK   46  A    between atoms: _115  and  _116
REMARK   47  A    between atoms: _119  and  _121
REMARK   48  A    between atoms: _121  and  _122
REMARK   49  A    between atoms: _121  and  _124
REMARK   50  A    between atoms: _124  and  _125
REMARK   51  A    between atoms: _125  and  _126
REMARK   52  A    between atoms: _126  and  _127
REMARK   53  A    between atoms: _127  and  CO_294
REMARK   54  A    between atoms: _129  and  _131
REMARK   55  A    between atoms: _131  and  _132
REMARK   56  A    between atoms: _131  and  _134
REMARK   57  A    between atoms: _134  and  _135
REMARK   58  A    between atoms: _141  and  _143
REMARK   59  A    between atoms: _143  and  _144
REMARK   60  A    between atoms: _143  and  _146
REMARK   61  A    between atoms: _146  and  _147
REMARK   62  A    between atoms: _150  and  _152
REMARK   63  A    between atoms: _152  and  _153
REMARK   64  A    between atoms: _156  and  _157
REMARK   65  A    between atoms: _162  and  _164
REMARK   66  A    between atoms: _164  and  _165
REMARK   67  A    between atoms: _168  and  _170
REMARK   68  A    between atoms: _170  and  _171
REMARK   69  A    between atoms: _170  and  _173
REMARK   70  A    between atoms: _173  and  _174
REMARK   71  A    between atoms: _174  and  _176
REMARK   72  A    between atoms: _176  and  CO_294
REMARK   73  A    between atoms: _177  and  _179
REMARK   74  A    between atoms: _179  and  _180
REMARK   75  A    between atoms: _179  and  _182
REMARK   76  A    between atoms: _182  and  _183
REMARK   77  A    between atoms: _186  and  _188
REMARK   78  A    between atoms: _188  and  _189
REMARK   79  A    between atoms: _188  and  _191
REMARK   80  A    between atoms: _191  and  _192
REMARK   81  A    between atoms: _194  and  _196
REMARK   82  A    between atoms: _196  and  _197
REMARK   83  A    between atoms: _200  and  _202
REMARK   84  A    between atoms: _202  and  _203
REMARK   85  A    between atoms: _202  and  _205
REMARK   86  A    between atoms: _205  and  _206
REMARK   87  A    between atoms: _209  and  _211
REMARK   88  A    between atoms: _211  and  _212
REMARK   89  A    between atoms: _215  and  _216
REMARK   90  A    between atoms: _221  and  _223
REMARK   91  A    between atoms: _223  and  _224
REMARK   92  A    between atoms: _223  and  _226
REMARK   93  A    between atoms: _226  and  _227
REMARK   94  A    between atoms: _230  and  _232
REMARK   95  A    between atoms: _232  and  _233
REMARK   96  A    between atoms: _232  and  _235
REMARK   97  A    between atoms: _235  and  _236
REMARK   98  A    between atoms: _239  and  _241
REMARK   99  A    between atoms: _241  and  _242
REMARK  100  A    between atoms: _241  and  _244
REMARK  101  A    between atoms: _244  and  _245
REMARK  102  A    between atoms: _248  and  _250
REMARK  103  A    between atoms: _250  and  _251
REMARK  104  A    between atoms: _254  and  _256
REMARK  105  A    between atoms: _256  and  _257
REMARK  106  A    between atoms: _256  and  _259
REMARK  107  A    between atoms: _262  and  _264
REMARK  108  A    between atoms: _264  and  _265
REMARK  109  A    between atoms: _267  and  _269
REMARK  110  A    between atoms: _269  and  _270
REMARK  111  A    between atoms: _269  and  _272
REMARK  112  A    between atoms: _275  and  _277
REMARK  113  A    between atoms: _277  and  _278
REMARK  114  A    between atoms: _280  and  _282
REMARK  115  A    between atoms: _282  and  _283
REMARK  116  A    between atoms: _282  and  _285
REMARK  117  A    between atoms: _285  and  _286
REMARK  118  A    between atoms: _288  and  _290
REMARK  119  A    between atoms: _290  and  _291
REMARK                            x       y       z     vdW  Elec       q    Type
REMARK                         _______ _______ _______ _____ _____    ______ ____
ROOT
ATOM      1  N   PRO A   1     -57.326 -27.628 -15.713  0.00  0.00    -0.212 NA
ATOM      2  CD  PRO A   1     -56.052 -27.310 -15.051  0.00  0.00    +0.089 C 
ATOM      3  CG  PRO A   1     -55.696 -28.591 -14.341  0.00  0.00    +0.021 C 
ATOM      4  CB  PRO A   1     -56.535 -29.680 -14.916  0.00  0.00    +0.027 C 
ATOM      5  CA  PRO A   1     -57.804 -28.971 -15.384  0.00  0.00    +0.137 C 
ENDROOT
BRANCH   5   6
ATOM      6  C   PRO A   1     -58.865 -29.008 -14.283  0.00  0.00    +0.224 C 
ATOM      7  O   PRO A   1     -59.303 -30.098 -13.935  0.00  0.00    -0.287 OA
ENDBRANCH   5   6
TORSDOF 1
REMARK  Name = ../refined-set-2016/4b5s/4b5s_pocket.pdb
REMARK  119 active torsions:
REMARK  status: ('A' for Active; 'I' for Inactive)
REMARK    1  A    between atoms: _1  and  _3
REMARK    2  A    between atoms: _3  and  _4
REMARK    3  A    between atoms: _3  and  _6
REMARK    4  A    between atoms: _6  and  _7
REMARK    5  A    between atoms: _17  and  _19
REMARK    6  A    between atoms: _19  and  _20
REMARK    7  A    between atoms: _19  and  _22
REMARK    8  A    between atoms: _22  and  _23
REMARK    9  A    between atoms: _26  and  _28
REMARK   10  A    between atoms: _28  and  _29
REMARK   11  A    between atoms: _28  and  _31
REMARK   12  A    between atoms: _31  and  _32
REMARK   13  A    between atoms: _35  and  _37
REMARK   14  A    between atoms: _37  and  _38
REMARK   15  A    between atoms: _37  and  _40
REMARK   16  A    between atoms: _40  and  _41
REMARK   17  A    between atoms: _41  and  _42
REMARK   18  A    between atoms: _45  and  _47
REMARK   19  A    between atoms: _47  and  _48
REMARK   20  A    between atoms: _47  and  _50
REMARK   21  A    between atoms: _50  and  _51
REMARK   22  A    between atoms: _56  and  _58
REMARK   23  A    between atoms: _58  and  _59
REMARK   24  A    between atoms: _58  and  _61
REMARK   25  A    between atoms: _61  and  _62
REMARK   26  A    between atoms: _62  and  _63
REMARK   27  A    between atoms: _63  and  _64
REMARK   28  A    between atoms: _73  and  _75
REMARK   29  A    between atoms: _75  and  _76
REMARK   30  A    between atoms: _75  and  _78
REMARK   31  A    between atoms: _78  and  _79
REMARK   32  A    between atoms: _83  and  _84
REMARK   33  A    between atoms: _89  and  _91
REMARK   34  A    between atoms: _91  and  _92
REMARK   35  A    between atoms: _91  and  _94
REMARK   36  A    between atoms: _94  and  _95
REMARK   37  A    between atoms: _95  and  _96
REMARK   38  A    between atoms: _98  and  _100
REMARK   39  A    between atoms: _100  and  _101
REMARK   40  A    between atoms: _100  and  _103
REMARK   41  A    between atoms: _103  and  _104
REMARK   42  A    between atoms: _104  and  _105
REMARK   43  A    between atoms: _110  and  _112
REMARK   44  A    between atoms: _112  and  _113
REMARK   45  A    between atoms: _112  and  _115
REMARK   46  A    between atoms: _115  and  _116
REMARK   47  A    between atoms: _119  and  _121
REMARK   48  A    between atoms: _121  and  _122
REMARK   49  A    between atoms: _121  and  _124
REMARK   50  A    between atoms: _124  and  _125
REMARK   51  A    between atoms: _125  and  _126
REMARK   52  A    between atoms: _126  and  _127
REMARK   53  A    between atoms: _127  and  CO_294
REMARK   54  A    between atoms: _129  and  _131
REMARK   55  A    between atoms: _131  and  _132
REMARK   56  A    between atoms: _131  and  _134
REMARK   57  A    between atoms: _134  and  _135
REMARK   58  A    between atoms: _141  and  _143
REMARK   59  A    between atoms: _143  and  _144
REMARK   60  A    between atoms: _143  and  _146
REMARK   61  A    between atoms: _146  and  _147
REMARK   62  A    between atoms: _150  and  _152
REMARK   63  A    between atoms: _152  and  _153
REMARK   64  A    between atoms: _156  and  _157
REMARK   65  A    between atoms: _162  and  _164
REMARK   66  A    between atoms: _164  and  _165
REMARK   67  A    between atoms: _168  and  _170
REMARK   68  A    between atoms: _170  and  _171
REMARK   69  A    between atoms: _170  and  _173
REMARK   70  A    between atoms: _173  and  _174
REMARK   71  A    between atoms: _174  and  _176
REMARK   72  A    between atoms: _176  and  CO_294
REMARK   73  A    between atoms: _177  and  _179
REMARK   74  A    between atoms: _179  and  _180
REMARK   75  A    between atoms: _179  and  _182
REMARK   76  A    between atoms: _182  and  _183
REMARK   77  A    between atoms: _186  and  _188
REMARK   78  A    between atoms: _188  and  _189
REMARK   79  A    between atoms: _188  and  _191
REMARK   80  A    between atoms: _191  and  _192
REMARK   81  A    between atoms: _194  and  _196
REMARK   82  A    between atoms: _196  and  _197
REMARK   83  A    between atoms: _200  and  _202
REMARK   84  A    between atoms: _202  and  _203
REMARK   85  A    between atoms: _202  and  _205
REMARK   86  A    between atoms: _205  and  _206
REMARK   87  A    between atoms: _209  and  _211
REMARK   88  A    between atoms: _211  and  _212
REMARK   89  A    between atoms: _215  and  _216
REMARK   90  A    between atoms: _221  and  _223
REMARK   91  A    between atoms: _223  and  _224
REMARK   92  A    between atoms: _223  and  _226
REMARK   93  A    between atoms: _226  and  _227
REMARK   94  A    between atoms: _230  and  _232
REMARK   95  A    between atoms: _232  and  _233
REMARK   96  A    between atoms: _232  and  _235
REMARK   97  A    between atoms: _235  and  _236
REMARK   98  A    between atoms: _239  and  _241
REMARK   99  A    between atoms: _241  and  _242
REMARK  100  A    between atoms: _241  and  _244
REMARK  101  A    between atoms: _244  and  _245
REMARK  102  A    between atoms: _248  and  _250
REMARK  103  A    between atoms: _250  and  _251
REMARK  104  A    between atoms: _254  and  _256
REMARK  105  A    between atoms: _256  and  _257
REMARK  106  A    between atoms: _256  and  _259
REMARK  107  A    between atoms: _262  and  _264
REMARK  108  A    between atoms: _264  and  _265
REMARK  109  A    between atoms: _267  and  _269
REMARK  110  A    between atoms: _269  and  _270
REMARK  111  A    between atoms: _269  and  _272
REMARK  112  A    between atoms: _275  and  _277
REMARK  113  A    between atoms: _277  and  _278
REMARK  114  A    between atoms: _280  and  _282
REMARK  115  A    between atoms: _282  and  _283
REMARK  116  A    between atoms: _282  and  _285
REMARK  117  A    between atoms: _285  and  _286
REMARK  118  A    between atoms: _288  and  _290
REMARK  119  A    between atoms: _290  and  _291
REMARK                            x       y       z     vdW  Elec       q    Type
REMARK                         _______ _______ _______ _____ _____    ______ ____
ROOT
ATOM      1  CA  LEU A   2     -47.784 -32.765 -11.371  0.00  0.00    +0.149 C 
ENDROOT
BRANCH   1   4
ATOM      2  C   ILE A   1     -48.023 -35.199 -11.200  0.00  0.00    +0.238 C 
ATOM      3  O   ILE A   1     -47.295 -35.286 -10.209  0.00  0.00    -0.274 OA
ATOM      4  N   LEU A   2     -48.240 -34.058 -11.850  0.00  0.00    -0.297 N 
ATOM      5  H   LEU A   2     -48.764 -34.094 -12.748  0.00  0.00    +0.150 HD
BRANCH   2   6
ATOM      6  CA  ILE A   1     -48.723 -36.405 -11.756  0.00  0.00    +0.145 C 
BRANCH   6   7
ATOM      7  N   ILE A   1     -48.143 -37.664 -11.370  0.00  0.00    -0.238 NA
ATOM      8  H   ILE A   1     -47.461 -37.675 -10.584  0.00  0.00    +0.142 HD
ENDBRANCH   6   7
BRANCH   6   9
ATOM      9  CB  ILE A   1     -50.277 -36.401 -11.301  0.00  0.00    +0.025 C 
ATOM     10  CG2 ILE A   1     -50.331 -36.435  -9.787  0.00  0.00    +0.002 C 
BRANCH   9  11
ATOM     11  CG1 ILE A   1     -51.039 -35.271 -11.900  0.00  0.00    +0.002 C 
ATOM     12  CD1 ILE A   1     -52.608 -35.572 -11.954  0.00  0.00    +0.000 C 
ENDBRANCH   9  11
ENDBRANCH   6   9
ENDBRANCH   2   6
ENDBRANCH   1   4
BRANCH   1  13
ATOM     13  C   LEU A   2     -49.006 -31.951 -11.060  0.00  0.00    +0.241 C 
ATOM     14  N   ILE A   3     -49.018 -31.355  -9.876  0.00  0.00    -0.298 N 
ATOM     15  H   ILE A   3     -48.197 -31.458  -9.246  0.00  0.00    +0.150 HD
ATOM     16  O   LEU A   2     -49.871 -31.791 -11.918  0.00  0.00    -0.273 OA
BRANCH  14  17
ATOM     17  CA  ILE A   3     -50.149 -30.565  -9.441  0.00  0.00    +0.137 C 
BRANCH  17  18
ATOM     18  C   ILE A   3     -49.710 -29.614  -8.340  0.00  0.00    +0.227 C 
ATOM     19  O   ILE A   3     -49.217 -30.047  -7.297  0.00  0.00    -0.286 OA
ENDBRANCH  17  18
BRANCH  17  20
ATOM     20  CB  ILE A   3     -51.287 -31.527  -8.938  0.00  0.00    +0.026 C 
ATOM     21  CG2 ILE A   3     -50.854 -32.337  -7.789  0.00  0.00    +0.002 C 
BRANCH  20  22
ATOM     22  CG1 ILE A   3     -52.556 -30.730  -8.624  0.00  0.00    +0.002 C 
ATOM     23  CD1 ILE A   3     -53.088 -30.049  -9.847  0.00  0.00    +0.000 C 
ENDBRANCH  20  22
ENDBRANCH  17  20
ENDBRANCH  14  17
ENDBRANCH   1  13
BRANCH   1  24
ATOM     24  CB  LEU A   2     -46.943 -32.005 -12.438  0.00  0.00    +0.029 C 
BRANCH  24  25
ATOM     25  CG  LEU A   2     -46.688 -30.525 -12.182  0.00  0.00    +0.002 C 
ATOM     26  CD2 LEU A   2     -45.801 -30.300 -10.988  0.00  0.00    +0.000 C 
ATOM     27  CD1 LEU A   2     -46.019 -29.884 -13.424  0.00  0.00    +0.000 C 
ENDBRANCH  24  25
ENDBRANCH   1  24
TORSDOF 12
REMARK  Name = ../refined-set-2016/4b5s/4b5s_pocket.pdb
REMARK  119 active torsions:
REMARK  status: ('A' for Active; 'I' for Inactive)
REMARK    1  A    between atoms: _1  and  _3
REMARK    2  A    between atoms: _3  and  _4
REMARK    3  A    between atoms: _3  and  _6
REMARK    4  A    between atoms: _6  and  _7
REMARK    5  A    between atoms: _17  and  _19
REMARK    6  A    between atoms: _19  and  _20
REMARK    7  A    between atoms: _19  and  _22
REMARK    8  A    between atoms: _22  and  _23
REMARK    9  A    between atoms: _26  and  _28
REMARK   10  A    between atoms: _28  and  _29
REMARK   11  A    between atoms: _28  and  _31
REMARK   12  A    between atoms: _31  and  _32
REMARK   13  A    between atoms: _35  and  _37
REMARK   14  A    between atoms: _37  and  _38
REMARK   15  A    between atoms: _37  and  _40
REMARK   16  A    between atoms: _40  and  _41
REMARK   17  A    between atoms: _41  and  _42
REMARK   18  A    between atoms: _45  and  _47
REMARK   19  A    between atoms: _47  and  _48
REMARK   20  A    between atoms: _47  and  _50
REMARK   21  A    between atoms: _50  and  _51
REMARK   22  A    between atoms: _56  and  _58
REMARK   23  A    between atoms: _58  and  _59
REMARK   24  A    between atoms: _58  and  _61
REMARK   25  A    between atoms: _61  and  _62
REMARK   26  A    between atoms: _62  and  _63
REMARK   27  A    between atoms: _63  and  _64
REMARK   28  A    between atoms: _73  and  _75
REMARK   29  A    between atoms: _75  and  _76
REMARK   30  A    between atoms: _75  and  _78
REMARK   31  A    between atoms: _78  and  _79
REMARK   32  A    between atoms: _83  and  _84
REMARK   33  A    between atoms: _89  and  _91
REMARK   34  A    between atoms: _91  and  _92
REMARK   35  A    between atoms: _91  and  _94
REMARK   36  A    between atoms: _94  and  _95
REMARK   37  A    between atoms: _95  and  _96
REMARK   38  A    between atoms: _98  and  _100
REMARK   39  A    between atoms: _100  and  _101
REMARK   40  A    between atoms: _100  and  _103
REMARK   41  A    between atoms: _103  and  _104
REMARK   42  A    between atoms: _104  and  _105
REMARK   43  A    between atoms: _110  and  _112
REMARK   44  A    between atoms: _112  and  _113
REMARK   45  A    between atoms: _112  and  _115
REMARK   46  A    between atoms: _115  and  _116
REMARK   47  A    between atoms: _119  and  _121
REMARK   48  A    between atoms: _121  and  _122
REMARK   49  A    between atoms: _121  and  _124
REMARK   50  A    between atoms: _124  and  _125
REMARK   51  A    between atoms: _125  and  _126
REMARK   52  A    between atoms: _126  and  _127
REMARK   53  A    between atoms: _127  and  CO_294
REMARK   54  A    between atoms: _129  and  _131
REMARK   55  A    between atoms: _131  and  _132
REMARK   56  A    between atoms: _131  and  _134
REMARK   57  A    between atoms: _134  and  _135
REMARK   58  A    between atoms: _141  and  _143
REMARK   59  A    between atoms: _143  and  _144
REMARK   60  A    between atoms: _143  and  _146
REMARK   61  A    between atoms: _146  and  _147
REMARK   62  A    between atoms: _150  and  _152
REMARK   63  A    between atoms: _152  and  _153
REMARK   64  A    between atoms: _156  and  _157
REMARK   65  A    between atoms: _162  and  _164
REMARK   66  A    between atoms: _164  and  _165
REMARK   67  A    between atoms: _168  and  _170
REMARK   68  A    between atoms: _170  and  _171
REMARK   69  A    between atoms: _170  and  _173
REMARK   70  A    between atoms: _173  and  _174
REMARK   71  A    between atoms: _174  and  _176
REMARK   72  A    between atoms: _176  and  CO_294
REMARK   73  A    between atoms: _177  and  _179
REMARK   74  A    between atoms: _179  and  _180
REMARK   75  A    between atoms: _179  and  _182
REMARK   76  A    between atoms: _182  and  _183
REMARK   77  A    between atoms: _186  and  _188
REMARK   78  A    between atoms: _188  and  _189
REMARK   79  A    between atoms: _188  and  _191
REMARK   80  A    between atoms: _191  and  _192
REMARK   81  A    between atoms: _194  and  _196
REMARK   82  A    between atoms: _196  and  _197
REMARK   83  A    between atoms: _200  and  _202
REMARK   84  A    between atoms: _202  and  _203
REMARK   85  A    between atoms: _202  and  _205
REMARK   86  A    between atoms: _205  and  _206
REMARK   87  A    between atoms: _209  and  _211
REMARK   88  A    between atoms: _211  and  _212
REMARK   89  A    between atoms: _215  and  _216
REMARK   90  A    between atoms: _221  and  _223
REMARK   91  A    between atoms: _223  and  _224
REMARK   92  A    between atoms: _223  and  _226
REMARK   93  A    between atoms: _226  and  _227
REMARK   94  A    between atoms: _230  and  _232
REMARK   95  A    between atoms: _232  and  _233
REMARK   96  A    between atoms: _232  and  _235
REMARK   97  A    between atoms: _235  and  _236
REMARK   98  A    between atoms: _239  and  _241
REMARK   99  A    between atoms: _241  and  _242
REMARK  100  A    between atoms: _241  and  _244
REMARK  101  A    between atoms: _244  and  _245
REMARK  102  A    between atoms: _248  and  _250
REMARK  103  A    between atoms: _250  and  _251
REMARK  104  A    between atoms: _254  and  _256
REMARK  105  A    between atoms: _256  and  _257
REMARK  106  A    between atoms: _256  and  _259
REMARK  107  A    between atoms: _262  and  _264
REMARK  108  A    between atoms: _264  and  _265
REMARK  109  A    between atoms: _267  and  _269
REMARK  110  A    between atoms: _269  and  _270
REMARK  111  A    between atoms: _269  and  _272
REMARK  112  A    between atoms: _275  and  _277
REMARK  113  A    between atoms: _277  and  _278
REMARK  114  A    between atoms: _280  and  _282
REMARK  115  A    between atoms: _282  and  _283
REMARK  116  A    between atoms: _282  and  _285
REMARK  117  A    between atoms: _285  and  _286
REMARK  118  A    between atoms: _288  and  _290
REMARK  119  A    between atoms: _290  and  _291
REMARK                            x       y       z     vdW  Elec       q    Type
REMARK                         _______ _______ _______ _____ _____    ______ ____
ROOT
ATOM      1  CA  ALA A   1     -44.676 -33.459  -8.079  0.00  0.00    +0.133 C 
ATOM      2  CB  ALA A   1     -44.071 -33.068  -9.475  0.00  0.00    +0.027 C 
ENDROOT
BRANCH   1   3
ATOM      3  N   ALA A   1     -45.334 -34.746  -8.190  0.00  0.00    -0.239 NA
ATOM      4  H   ALA A   1     -45.740 -35.044  -9.100  0.00  0.00    +0.142 HD
ENDBRANCH   1   3
BRANCH   1   5
ATOM      5  C   ALA A   1     -45.658 -32.395  -7.599  0.00  0.00    +0.224 C 
ATOM      6  O   ALA A   1     -46.735 -32.209  -8.176  0.00  0.00    -0.287 OA
ENDBRANCH   1   5
TORSDOF 2
REMARK  Name = ../refined-set-2016/4b5s/4b5s_pocket.pdb
REMARK  119 active torsions:
REMARK  status: ('A' for Active; 'I' for Inactive)
REMARK    1  A    between atoms: _1  and  _3
REMARK    2  A    between atoms: _3  and  _4
REMARK    3  A    between atoms: _3  and  _6
REMARK    4  A    between atoms: _6  and  _7
REMARK    5  A    between atoms: _17  and  _19
REMARK    6  A    between atoms: _19  and  _20
REMARK    7  A    between atoms: _19  and  _22
REMARK    8  A    between atoms: _22  and  _23
REMARK    9  A    between atoms: _26  and  _28
REMARK   10  A    between atoms: _28  and  _29
REMARK   11  A    between atoms: _28  and  _31
REMARK   12  A    between atoms: _31  and  _32
REMARK   13  A    between atoms: _35  and  _37
REMARK   14  A    between atoms: _37  and  _38
REMARK   15  A    between atoms: _37  and  _40
REMARK   16  A    between atoms: _40  and  _41
REMARK   17  A    between atoms: _41  and  _42
REMARK   18  A    between atoms: _45  and  _47
REMARK   19  A    between atoms: _47  and  _48
REMARK   20  A    between atoms: _47  and  _50
REMARK   21  A    between atoms: _50  and  _51
REMARK   22  A    between atoms: _56  and  _58
REMARK   23  A    between atoms: _58  and  _59
REMARK   24  A    between atoms: _58  and  _61
REMARK   25  A    between atoms: _61  and  _62
REMARK   26  A    between atoms: _62  and  _63
REMARK   27  A    between atoms: _63  and  _64
REMARK   28  A    between atoms: _73  and  _75
REMARK   29  A    between atoms: _75  and  _76
REMARK   30  A    between atoms: _75  and  _78
REMARK   31  A    between atoms: _78  and  _79
REMARK   32  A    between atoms: _83  and  _84
REMARK   33  A    between atoms: _89  and  _91
REMARK   34  A    between atoms: _91  and  _92
REMARK   35  A    between atoms: _91  and  _94
REMARK   36  A    between atoms: _94  and  _95
REMARK   37  A    between atoms: _95  and  _96
REMARK   38  A    between atoms: _98  and  _100
REMARK   39  A    between atoms: _100  and  _101
REMARK   40  A    between atoms: _100  and  _103
REMARK   41  A    between atoms: _103  and  _104
REMARK   42  A    between atoms: _104  and  _105
REMARK   43  A    between atoms: _110  and  _112
REMARK   44  A    between atoms: _112  and  _113
REMARK   45  A    between atoms: _112  and  _115
REMARK   46  A    between atoms: _115  and  _116
REMARK   47  A    between atoms: _119  and  _121
REMARK   48  A    between atoms: _121  and  _122
REMARK   49  A    between atoms: _121  and  _124
REMARK   50  A    between atoms: _124  and  _125
REMARK   51  A    between atoms: _125  and  _126
REMARK   52  A    between atoms: _126  and  _127
REMARK   53  A    between atoms: _127  and  CO_294
REMARK   54  A    between atoms: _129  and  _131
REMARK   55  A    between atoms: _131  and  _132
REMARK   56  A    between atoms: _131  and  _134
REMARK   57  A    between atoms: _134  and  _135
REMARK   58  A    between atoms: _141  and  _143
REMARK   59  A    between atoms: _143  and  _144
REMARK   60  A    between atoms: _143  and  _146
REMARK   61  A    between atoms: _146  and  _147
REMARK   62  A    between atoms: _150  and  _152
REMARK   63  A    between atoms: _152  and  _153
REMARK   64  A    between atoms: _156  and  _157
REMARK   65  A    between atoms: _162  and  _164
REMARK   66  A    between atoms: _164  and  _165
REMARK   67  A    between atoms: _168  and  _170
REMARK   68  A    between atoms: _170  and  _171
REMARK   69  A    between atoms: _170  and  _173
REMARK   70  A    between atoms: _173  and  _174
REMARK   71  A    between atoms: _174  and  _176
REMARK   72  A    between atoms: _176  and  CO_294
REMARK   73  A    between atoms: _177  and  _179
REMARK   74  A    between atoms: _179  and  _180
REMARK   75  A    between atoms: _179  and  _182
REMARK   76  A    between atoms: _182  and  _183
REMARK   77  A    between atoms: _186  and  _188
REMARK   78  A    between atoms: _188  and  _189
REMARK   79  A    between atoms: _188  and  _191
REMARK   80  A    between atoms: _191  and  _192
REMARK   81  A    between atoms: _194  and  _196
REMARK   82  A    between atoms: _196  and  _197
REMARK   83  A    between atoms: _200  and  _202
REMARK   84  A    between atoms: _202  and  _203
REMARK   85  A    between atoms: _202  and  _205
REMARK   86  A    between atoms: _205  and  _206
REMARK   87  A    between atoms: _209  and  _211
REMARK   88  A    between atoms: _211  and  _212
REMARK   89  A    between atoms: _215  and  _216
REMARK   90  A    between atoms: _221  and  _223
REMARK   91  A    between atoms: _223  and  _224
REMARK   92  A    between atoms: _223  and  _226
REMARK   93  A    between atoms: _226  and  _227
REMARK   94  A    between atoms: _230  and  _232
REMARK   95  A    between atoms: _232  and  _233
REMARK   96  A    between atoms: _232  and  _235
REMARK   97  A    between atoms: _235  and  _236
REMARK   98  A    between atoms: _239  and  _241
REMARK   99  A    between atoms: _241  and  _242
REMARK  100  A    between atoms: _241  and  _244
REMARK  101  A    between atoms: _244  and  _245
REMARK  102  A    between atoms: _248  and  _250
REMARK  103  A    between atoms: _250  and  _251
REMARK  104  A    between atoms: _254  and  _256
REMARK  105  A    between atoms: _256  and  _257
REMARK  106  A    between atoms: _256  and  _259
REMARK  107  A    between atoms: _262  and  _264
REMARK  108  A    between atoms: _264  and  _265
REMARK  109  A    between atoms: _267  and  _269
REMARK  110  A    between atoms: _269  and  _270
REMARK  111  A    between atoms: _269  and  _272
REMARK  112  A    between atoms: _275  and  _277
REMARK  113  A    between atoms: _277  and  _278
REMARK  114  A    between atoms: _280  and  _282
REMARK  115  A    between atoms: _282  and  _283
REMARK  116  A    between atoms: _282  and  _285
REMARK  117  A    between atoms: _285  and  _286
REMARK  118  A    between atoms: _288  and  _290
REMARK  119  A    between atoms: _290  and  _291
REMARK                            x       y       z     vdW  Elec       q    Type
REMARK                         _______ _______ _______ _____ _____    ______ ____
ROOT
ATOM      1  CA  VAL A   1     -42.333 -25.961  -9.738  0.00  0.00    +0.133 C 
ENDROOT
BRANCH   1   2
ATOM      2  CB  VAL A   1     -43.135 -25.489 -10.979  0.00  0.00    +0.023 C 
ATOM      3  CG2 VAL A   1     -44.129 -26.528 -11.425  0.00  0.00    +0.002 C 
ATOM      4  CG1 VAL A   1     -42.197 -25.107 -12.136  0.00  0.00    +0.002 C 
ENDBRANCH   1   2
BRANCH   1   5
ATOM      5  N   VAL A   1     -43.265 -26.275  -8.641  0.00  0.00    -0.239 NA
ATOM      6  H   VAL A   1     -43.769 -25.490  -8.182  0.00  0.00    +0.142 HD
ENDBRANCH   1   5
BRANCH   1   7
ATOM      7  C   VAL A   1     -41.447 -24.866  -9.250  0.00  0.00    +0.224 C 
ATOM      8  O   VAL A   1     -41.885 -23.861  -8.712  0.00  0.00    -0.287 OA
ENDBRANCH   1   7
TORSDOF 3
REMARK  Name = ../refined-set-2016/4b5s/4b5s_pocket.pdb
REMARK  119 active torsions:
REMARK  status: ('A' for Active; 'I' for Inactive)
REMARK    1  A    between atoms: _1  and  _3
REMARK    2  A    between atoms: _3  and  _4
REMARK    3  A    between atoms: _3  and  _6
REMARK    4  A    between atoms: _6  and  _7
REMARK    5  A    between atoms: _17  and  _19
REMARK    6  A    between atoms: _19  and  _20
REMARK    7  A    between atoms: _19  and  _22
REMARK    8  A    between atoms: _22  and  _23
REMARK    9  A    between atoms: _26  and  _28
REMARK   10  A    between atoms: _28  and  _29
REMARK   11  A    between atoms: _28  and  _31
REMARK   12  A    between atoms: _31  and  _32
REMARK   13  A    between atoms: _35  and  _37
REMARK   14  A    between atoms: _37  and  _38
REMARK   15  A    between atoms: _37  and  _40
REMARK   16  A    between atoms: _40  and  _41
REMARK   17  A    between atoms: _41  and  _42
REMARK   18  A    between atoms: _45  and  _47
REMARK   19  A    between atoms: _47  and  _48
REMARK   20  A    between atoms: _47  and  _50
REMARK   21  A    between atoms: _50  and  _51
REMARK   22  A    between atoms: _56  and  _58
REMARK   23  A    between atoms: _58  and  _59
REMARK   24  A    between atoms: _58  and  _61
REMARK   25  A    between atoms: _61  and  _62
REMARK   26  A    between atoms: _62  and  _63
REMARK   27  A    between atoms: _63  and  _64
REMARK   28  A    between atoms: _73  and  _75
REMARK   29  A    between atoms: _75  and  _76
REMARK   30  A    between atoms: _75  and  _78
REMARK   31  A    between atoms: _78  and  _79
REMARK   32  A    between atoms: _83  and  _84
REMARK   33  A    between atoms: _89  and  _91
REMARK   34  A    between atoms: _91  and  _92
REMARK   35  A    between atoms: _91  and  _94
REMARK   36  A    between atoms: _94  and  _95
REMARK   37  A    between atoms: _95  and  _96
REMARK   38  A    between atoms: _98  and  _100
REMARK   39  A    between atoms: _100  and  _101
REMARK   40  A    between atoms: _100  and  _103
REMARK   41  A    between atoms: _103  and  _104
REMARK   42  A    between atoms: _104  and  _105
REMARK   43  A    between atoms: _110  and  _112
REMARK   44  A    between atoms: _112  and  _113
REMARK   45  A    between atoms: _112  and  _115
REMARK   46  A    between atoms: _115  and  _116
REMARK   47  A    between atoms: _119  and  _121
REMARK   48  A    between atoms: _121  and  _122
REMARK   49  A    between atoms: _121  and  _124
REMARK   50  A    between atoms: _124  and  _125
REMARK   51  A    between atoms: _125  and  _126
REMARK   52  A    between atoms: _126  and  _127
REMARK   53  A    between atoms: _127  and  CO_294
REMARK   54  A    between atoms: _129  and  _131
REMARK   55  A    between atoms: _131  and  _132
REMARK   56  A    between atoms: _131  and  _134
REMARK   57  A    between atoms: _134  and  _135
REMARK   58  A    between atoms: _141  and  _143
REMARK   59  A    between atoms: _143  and  _144
REMARK   60  A    between atoms: _143  and  _146
REMARK   61  A    between atoms: _146  and  _147
REMARK   62  A    between atoms: _150  and  _152
REMARK   63  A    between atoms: _152  and  _153
REMARK   64  A    between atoms: _156  and  _157
REMARK   65  A    between atoms: _162  and  _164
REMARK   66  A    between atoms: _164  and  _165
REMARK   67  A    between atoms: _168  and  _170
REMARK   68  A    between atoms: _170  and  _171
REMARK   69  A    between atoms: _170  and  _173
REMARK   70  A    between atoms: _173  and  _174
REMARK   71  A    between atoms: _174  and  _176
REMARK   72  A    between atoms: _176  and  CO_294
REMARK   73  A    between atoms: _177  and  _179
REMARK   74  A    between atoms: _179  and  _180
REMARK   75  A    between atoms: _179  and  _182
REMARK   76  A    between atoms: _182  and  _183
REMARK   77  A    between atoms: _186  and  _188
REMARK   78  A    between atoms: _188  and  _189
REMARK   79  A    between atoms: _188  and  _191
REMARK   80  A    between atoms: _191  and  _192
REMARK   81  A    between atoms: _194  and  _196
REMARK   82  A    between atoms: _196  and  _197
REMARK   83  A    between atoms: _200  and  _202
REMARK   84  A    between atoms: _202  and  _203
REMARK   85  A    between atoms: _202  and  _205
REMARK   86  A    between atoms: _205  and  _206
REMARK   87  A    between atoms: _209  and  _211
REMARK   88  A    between atoms: _211  and  _212
REMARK   89  A    between atoms: _215  and  _216
REMARK   90  A    between atoms: _221  and  _223
REMARK   91  A    between atoms: _223  and  _224
REMARK   92  A    between atoms: _223  and  _226
REMARK   93  A    between atoms: _226  and  _227
REMARK   94  A    between atoms: _230  and  _232
REMARK   95  A    between atoms: _232  and  _233
REMARK   96  A    between atoms: _232  and  _235
REMARK   97  A    between atoms: _235  and  _236
REMARK   98  A    between atoms: _239  and  _241
REMARK   99  A    between atoms: _241  and  _242
REMARK  100  A    between atoms: _241  and  _244
REMARK  101  A    between atoms: _244  and  _245
REMARK  102  A    between atoms: _248  and  _250
REMARK  103  A    between atoms: _250  and  _251
REMARK  104  A    between atoms: _254  and  _256
REMARK  105  A    between atoms: _256  and  _257
REMARK  106  A    between atoms: _256  and  _259
REMARK  107  A    between atoms: _262  and  _264
REMARK  108  A    between atoms: _264  and  _265
REMARK  109  A    between atoms: _267  and  _269
REMARK  110  A    between atoms: _269  and  _270
REMARK  111  A    between atoms: _269  and  _272
REMARK  112  A    between atoms: _275  and  _277
REMARK  113  A    between atoms: _277  and  _278
REMARK  114  A    between atoms: _280  and  _282
REMARK  115  A    between atoms: _282  and  _283
REMARK  116  A    between atoms: _282  and  _285
REMARK  117  A    between atoms: _285  and  _286
REMARK  118  A    between atoms: _288  and  _290
REMARK  119  A    between atoms: _290  and  _291
REMARK                            x       y       z     vdW  Elec       q    Type
REMARK                         _______ _______ _______ _____ _____    ______ ____
ROOT
ATOM      1  CA  GLY A   3     -46.067 -25.700 -20.265  0.00  0.00    +0.176 C 
ENDROOT
BRANCH   1   4
ATOM      2  C   VAL A   2     -47.708 -26.821 -21.637  0.00  0.00    +0.241 C 
ATOM      3  O   VAL A   2     -47.646 -27.862 -20.990  0.00  0.00    -0.273 OA
ATOM      4  N   GLY A   3     -47.013 -25.736 -21.344  0.00  0.00    -0.295 N 
ATOM      5  H   GLY A   3     -47.156 -24.879 -21.915  0.00  0.00    +0.150 HD
BRANCH   2   6
ATOM      6  CA  VAL A   2     -48.668 -26.678 -22.787  0.00  0.00    +0.148 C 
BRANCH   6   8
ATOM      7  C   GLY A   1     -47.686 -27.378 -24.879  0.00  0.00    +0.240 C 
ATOM      8  N   VAL A   2     -48.446 -27.666 -23.824  0.00  0.00    -0.297 N 
ATOM      9  H   VAL A   2     -48.883 -28.606 -23.744  0.00  0.00    +0.150 HD
ATOM     10  O   GLY A   1     -47.097 -26.292 -24.988  0.00  0.00    -0.274 OA
BRANCH   7  11
ATOM     11  CA  GLY A   1     -47.543 -28.456 -25.944  0.00  0.00    +0.169 C 
BRANCH  11  12
ATOM     12  N   GLY A   1     -47.486 -27.912 -27.303  0.00  0.00    -0.236 NA
ATOM     13  H   GLY A   1     -46.589 -27.952 -27.828  0.00  0.00    +0.142 HD
ENDBRANCH  11  12
ENDBRANCH   7  11
ENDBRANCH   6   8
BRANCH   6  14
ATOM     14  CB  VAL A   2     -50.056 -26.791 -22.190  0.00  0.00    +0.027 C 
ATOM     15  CG2 VAL A   2     -50.263 -25.678 -21.199  0.00  0.00    +0.002 C 
ATOM     16  CG1 VAL A   2     -51.090 -26.780 -23.316  0.00  0.00    +0.002 C 
ENDBRANCH   6  14
ENDBRANCH   2   6
ENDBRANCH   1   4
BRANCH   1  17
ATOM     17  C   GLY A   3     -45.822 -24.278 -19.848  0.00  0.00    +0.243 C 
ATOM     18  O   GLY A   3     -44.680 -23.927 -19.616  0.00  0.00    -0.273 OA
ATOM     19  N   SER A   4     -46.885 -23.477 -19.676  0.00  0.00    -0.295 N 
ATOM     20  H   SER A   4     -47.843 -23.879 -19.733  0.00  0.00    +0.150 HD
BRANCH  19  21
ATOM     21  CA  SER A   4     -46.717 -22.031 -19.407  0.00  0.00    +0.178 C 
BRANCH  21  22
ATOM     22  C   SER A   4     -46.194 -21.643 -18.025  0.00  0.00    +0.243 C 
ATOM     23  N   ALA A   5     -46.348 -22.472 -16.999  0.00  0.00    -0.298 N 
ATOM     24  H   ALA A   5     -46.847 -23.378 -17.110  0.00  0.00    +0.150 HD
ATOM     25  O   SER A   4     -45.620 -20.577 -17.872  0.00  0.00    -0.273 OA
BRANCH  23  26
ATOM     26  CA  ALA A   5     -45.793 -22.069 -15.708  0.00  0.00    +0.137 C 
ATOM     27  CB  ALA A   5     -46.053 -23.159 -14.578  0.00  0.00    +0.030 C 
BRANCH  26  28
ATOM     28  C   ALA A   5     -44.290 -21.854 -15.874  0.00  0.00    +0.227 C 
ATOM     29  O   ALA A   5     -43.653 -21.040 -15.179  0.00  0.00    -0.286 OA
ENDBRANCH  26  28
ENDBRANCH  23  26
ENDBRANCH  21  22
BRANCH  21  30
ATOM     30  CB  SER A   4     -48.001 -21.241 -19.748  0.00  0.00    +0.166 C 
BRANCH  30  31
ATOM     31  OG  SER A   4     -49.080 -21.639 -18.938  0.00  0.00    -0.380 OA
ATOM     32  H   SER A   4     -48.855 -21.478 -17.988  0.00  0.00    +0.211 HD
ENDBRANCH  30  31
ENDBRANCH  21  30
ENDBRANCH  19  21
ENDBRANCH   1  17
TORSDOF 13
REMARK  Name = ../refined-set-2016/4b5s/4b5s_pocket.pdb
REMARK  119 active torsions:
REMARK  status: ('A' for Active; 'I' for Inactive)
REMARK    1  A    between atoms: _1  and  _3
REMARK    2  A    between atoms: _3  and  _4
REMARK    3  A    between atoms: _3  and  _6
REMARK    4  A    between atoms: _6  and  _7
REMARK    5  A    between atoms: _17  and  _19
REMARK    6  A    between atoms: _19  and  _20
REMARK    7  A    between atoms: _19  and  _22
REMARK    8  A    between atoms: _22  and  _23
REMARK    9  A    between atoms: _26  and  _28
REMARK   10  A    between atoms: _28  and  _29
REMARK   11  A    between atoms: _28  and  _31
REMARK   12  A    between atoms: _31  and  _32
REMARK   13  A    between atoms: _35  and  _37
REMARK   14  A    between atoms: _37  and  _38
REMARK   15  A    between atoms: _37  and  _40
REMARK   16  A    between atoms: _40  and  _41
REMARK   17  A    between atoms: _41  and  _42
REMARK   18  A    between atoms: _45  and  _47
REMARK   19  A    between atoms: _47  and  _48
REMARK   20  A    between atoms: _47  and  _50
REMARK   21  A    between atoms: _50  and  _51
REMARK   22  A    between atoms: _56  and  _58
REMARK   23  A    between atoms: _58  and  _59
REMARK   24  A    between atoms: _58  and  _61
REMARK   25  A    between atoms: _61  and  _62
REMARK   26  A    between atoms: _62  and  _63
REMARK   27  A    between atoms: _63  and  _64
REMARK   28  A    between atoms: _73  and  _75
REMARK   29  A    between atoms: _75  and  _76
REMARK   30  A    between atoms: _75  and  _78
REMARK   31  A    between atoms: _78  and  _79
REMARK   32  A    between atoms: _83  and  _84
REMARK   33  A    between atoms: _89  and  _91
REMARK   34  A    between atoms: _91  and  _92
REMARK   35  A    between atoms: _91  and  _94
REMARK   36  A    between atoms: _94  and  _95
REMARK   37  A    between atoms: _95  and  _96
REMARK   38  A    between atoms: _98  and  _100
REMARK   39  A    between atoms: _100  and  _101
REMARK   40  A    between atoms: _100  and  _103
REMARK   41  A    between atoms: _103  and  _104
REMARK   42  A    between atoms: _104  and  _105
REMARK   43  A    between atoms: _110  and  _112
REMARK   44  A    between atoms: _112  and  _113
REMARK   45  A    between atoms: _112  and  _115
REMARK   46  A    between atoms: _115  and  _116
REMARK   47  A    between atoms: _119  and  _121
REMARK   48  A    between atoms: _121  and  _122
REMARK   49  A    between atoms: _121  and  _124
REMARK   50  A    between atoms: _124  and  _125
REMARK   51  A    between atoms: _125  and  _126
REMARK   52  A    between atoms: _126  and  _127
REMARK   53  A    between atoms: _127  and  CO_294
REMARK   54  A    between atoms: _129  and  _131
REMARK   55  A    between atoms: _131  and  _132
REMARK   56  A    between atoms: _131  and  _134
REMARK   57  A    between atoms: _134  and  _135
REMARK   58  A    between atoms: _141  and  _143
REMARK   59  A    between atoms: _143  and  _144
REMARK   60  A    between atoms: _143  and  _146
REMARK   61  A    between atoms: _146  and  _147
REMARK   62  A    between atoms: _150  and  _152
REMARK   63  A    between atoms: _152  and  _153
REMARK   64  A    between atoms: _156  and  _157
REMARK   65  A    between atoms: _162  and  _164
REMARK   66  A    between atoms: _164  and  _165
REMARK   67  A    between atoms: _168  and  _170
REMARK   68  A    between atoms: _170  and  _171
REMARK   69  A    between atoms: _170  and  _173
REMARK   70  A    between atoms: _173  and  _174
REMARK   71  A    between atoms: _174  and  _176
REMARK   72  A    between atoms: _176  and  CO_294
REMARK   73  A    between atoms: _177  and  _179
REMARK   74  A    between atoms: _179  and  _180
REMARK   75  A    between atoms: _179  and  _182
REMARK   76  A    between atoms: _182  and  _183
REMARK   77  A    between atoms: _186  and  _188
REMARK   78  A    between atoms: _188  and  _189
REMARK   79  A    between atoms: _188  and  _191
REMARK   80  A    between atoms: _191  and  _192
REMARK   81  A    between atoms: _194  and  _196
REMARK   82  A    between atoms: _196  and  _197
REMARK   83  A    between atoms: _200  and  _202
REMARK   84  A    between atoms: _202  and  _203
REMARK   85  A    between atoms: _202  and  _205
REMARK   86  A    between atoms: _205  and  _206
REMARK   87  A    between atoms: _209  and  _211
REMARK   88  A    between atoms: _211  and  _212
REMARK   89  A    between atoms: _215  and  _216
REMARK   90  A    between atoms: _221  and  _223
REMARK   91  A    between atoms: _223  and  _224
REMARK   92  A    between atoms: _223  and  _226
REMARK   93  A    between atoms: _226  and  _227
REMARK   94  A    between atoms: _230  and  _232
REMARK   95  A    between atoms: _232  and  _233
REMARK   96  A    between atoms: _232  and  _235
REMARK   97  A    between atoms: _235  and  _236
REMARK   98  A    between atoms: _239  and  _241
REMARK   99  A    between atoms: _241  and  _242
REMARK  100  A    between atoms: _241  and  _244
REMARK  101  A    between atoms: _244  and  _245
REMARK  102  A    between atoms: _248  and  _250
REMARK  103  A    between atoms: _250  and  _251
REMARK  104  A    between atoms: _254  and  _256
REMARK  105  A    between atoms: _256  and  _257
REMARK  106  A    between atoms: _256  and  _259
REMARK  107  A    between atoms: _262  and  _264
REMARK  108  A    between atoms: _264  and  _265
REMARK  109  A    between atoms: _267  and  _269
REMARK  110  A    between atoms: _269  and  _270
REMARK  111  A    between atoms: _269  and  _272
REMARK  112  A    between atoms: _275  and  _277
REMARK  113  A    between atoms: _277  and  _278
REMARK  114  A    between atoms: _280  and  _282
REMARK  115  A    between atoms: _282  and  _283
REMARK  116  A    between atoms: _282  and  _285
REMARK  117  A    between atoms: _285  and  _286
REMARK  118  A    between atoms: _288  and  _290
REMARK  119  A    between atoms: _290  and  _291
REMARK                            x       y       z     vdW  Elec       q    Type
REMARK                         _______ _______ _______ _____ _____    ______ ____
ROOT
ATOM      1 MG   UNL     1     -47.385 -32.048 -20.730  0.00  0.00    +0.000 Mg
ATOM      2  O   UNL     1     -46.454 -29.960 -20.442  0.00  0.00    +0.000 OA
ENDROOT
TORSDOF 0
REMARK  Name = ../refined-set-2016/4b5s/4b5s_pocket.pdb
REMARK  119 active torsions:
REMARK  status: ('A' for Active; 'I' for Inactive)
REMARK    1  A    between atoms: _1  and  _3
REMARK    2  A    between atoms: _3  and  _4
REMARK    3  A    between atoms: _3  and  _6
REMARK    4  A    between atoms: _6  and  _7
REMARK    5  A    between atoms: _17  and  _19
REMARK    6  A    between atoms: _19  and  _20
REMARK    7  A    between atoms: _19  and  _22
REMARK    8  A    between atoms: _22  and  _23
REMARK    9  A    between atoms: _26  and  _28
REMARK   10  A    between atoms: _28  and  _29
REMARK   11  A    between atoms: _28  and  _31
REMARK   12  A    between atoms: _31  and  _32
REMARK   13  A    between atoms: _35  and  _37
REMARK   14  A    between atoms: _37  and  _38
REMARK   15  A    between atoms: _37  and  _40
REMARK   16  A    between atoms: _40  and  _41
REMARK   17  A    between atoms: _41  and  _42
REMARK   18  A    between atoms: _45  and  _47
REMARK   19  A    between atoms: _47  and  _48
REMARK   20  A    between atoms: _47  and  _50
REMARK   21  A    between atoms: _50  and  _51
REMARK   22  A    between atoms: _56  and  _58
REMARK   23  A    between atoms: _58  and  _59
REMARK   24  A    between atoms: _58  and  _61
REMARK   25  A    between atoms: _61  and  _62
REMARK   26  A    between atoms: _62  and  _63
REMARK   27  A    between atoms: _63  and  _64
REMARK   28  A    between atoms: _73  and  _75
REMARK   29  A    between atoms: _75  and  _76
REMARK   30  A    between atoms: _75  and  _78
REMARK   31  A    between atoms: _78  and  _79
REMARK   32  A    between atoms: _83  and  _84
REMARK   33  A    between atoms: _89  and  _91
REMARK   34  A    between atoms: _91  and  _92
REMARK   35  A    between atoms: _91  and  _94
REMARK   36  A    between atoms: _94  and  _95
REMARK   37  A    between atoms: _95  and  _96
REMARK   38  A    between atoms: _98  and  _100
REMARK   39  A    between atoms: _100  and  _101
REMARK   40  A    between atoms: _100  and  _103
REMARK   41  A    between atoms: _103  and  _104
REMARK   42  A    between atoms: _104  and  _105
REMARK   43  A    between atoms: _110  and  _112
REMARK   44  A    between atoms: _112  and  _113
REMARK   45  A    between atoms: _112  and  _115
REMARK   46  A    between atoms: _115  and  _116
REMARK   47  A    between atoms: _119  and  _121
REMARK   48  A    between atoms: _121  and  _122
REMARK   49  A    between atoms: _121  and  _124
REMARK   50  A    between atoms: _124  and  _125
REMARK   51  A    between atoms: _125  and  _126
REMARK   52  A    between atoms: _126  and  _127
REMARK   53  A    between atoms: _127  and  CO_294
REMARK   54  A    between atoms: _129  and  _131
REMARK   55  A    between atoms: _131  and  _132
REMARK   56  A    between atoms: _131  and  _134
REMARK   57  A    between atoms: _134  and  _135
REMARK   58  A    between atoms: _141  and  _143
REMARK   59  A    between atoms: _143  and  _144
REMARK   60  A    between atoms: _143  and  _146
REMARK   61  A    between atoms: _146  and  _147
REMARK   62  A    between atoms: _150  and  _152
REMARK   63  A    between atoms: _152  and  _153
REMARK   64  A    between atoms: _156  and  _157
REMARK   65  A    between atoms: _162  and  _164
REMARK   66  A    between atoms: _164  and  _165
REMARK   67  A    between atoms: _168  and  _170
REMARK   68  A    between atoms: _170  and  _171
REMARK   69  A    between atoms: _170  and  _173
REMARK   70  A    between atoms: _173  and  _174
REMARK   71  A    between atoms: _174  and  _176
REMARK   72  A    between atoms: _176  and  CO_294
REMARK   73  A    between atoms: _177  and  _179
REMARK   74  A    between atoms: _179  and  _180
REMARK   75  A    between atoms: _179  and  _182
REMARK   76  A    between atoms: _182  and  _183
REMARK   77  A    between atoms: _186  and  _188
REMARK   78  A    between atoms: _188  and  _189
REMARK   79  A    between atoms: _188  and  _191
REMARK   80  A    between atoms: _191  and  _192
REMARK   81  A    between atoms: _194  and  _196
REMARK   82  A    between atoms: _196  and  _197
REMARK   83  A    between atoms: _200  and  _202
REMARK   84  A    between atoms: _202  and  _203
REMARK   85  A    between atoms: _202  and  _205
REMARK   86  A    between atoms: _205  and  _206
REMARK   87  A    between atoms: _209  and  _211
REMARK   88  A    between atoms: _211  and  _212
REMARK   89  A    between atoms: _215  and  _216
REMARK   90  A    between atoms: _221  and  _223
REMARK   91  A    between atoms: _223  and  _224
REMARK   92  A    between atoms: _223  and  _226
REMARK   93  A    between atoms: _226  and  _227
REMARK   94  A    between atoms: _230  and  _232
REMARK   95  A    between atoms: _232  and  _233
REMARK   96  A    between atoms: _232  and  _235
REMARK   97  A    between atoms: _235  and  _236
REMARK   98  A    between atoms: _239  and  _241
REMARK   99  A    between atoms: _241  and  _242
REMARK  100  A    between atoms: _241  and  _244
REMARK  101  A    between atoms: _244  and  _245
REMARK  102  A    between atoms: _248  and  _250
REMARK  103  A    between atoms: _250  and  _251
REMARK  104  A    between atoms: _254  and  _256
REMARK  105  A    between atoms: _256  and  _257
REMARK  106  A    between atoms: _256  and  _259
REMARK  107  A    between atoms: _262  and  _264
REMARK  108  A    between atoms: _264  and  _265
REMARK  109  A    between atoms: _267  and  _269
REMARK  110  A    between atoms: _269  and  _270
REMARK  111  A    between atoms: _269  and  _272
REMARK  112  A    between atoms: _275  and  _277
REMARK  113  A    between atoms: _277  and  _278
REMARK  114  A    between atoms: _280  and  _282
REMARK  115  A    between atoms: _282  and  _283
REMARK  116  A    between atoms: _282  and  _285
REMARK  117  A    between atoms: _285  and  _286
REMARK  118  A    between atoms: _288  and  _290
REMARK  119  A    between atoms: _290  and  _291
REMARK                            x       y       z     vdW  Elec       q    Type
REMARK                         _______ _______ _______ _____ _____    ______ ____
ROOT
ATOM      1  O   HOH     1     -45.029 -27.811 -16.663  0.00  0.00    +0.000 OA
ENDROOT
TORSDOF 0
REMARK  Name = ../refined-set-2016/4b5s/4b5s_pocket.pdb
REMARK  119 active torsions:
REMARK  status: ('A' for Active; 'I' for Inactive)
REMARK    1  A    between atoms: _1  and  _3
REMARK    2  A    between atoms: _3  and  _4
REMARK    3  A    between atoms: _3  and  _6
REMARK    4  A    between atoms: _6  and  _7
REMARK    5  A    between atoms: _17  and  _19
REMARK    6  A    between atoms: _19  and  _20
REMARK    7  A    between atoms: _19  and  _22
REMARK    8  A    between atoms: _22  and  _23
REMARK    9  A    between atoms: _26  and  _28
REMARK   10  A    between atoms: _28  and  _29
REMARK   11  A    between atoms: _28  and  _31
REMARK   12  A    between atoms: _31  and  _32
REMARK   13  A    between atoms: _35  and  _37
REMARK   14  A    between atoms: _37  and  _38
REMARK   15  A    between atoms: _37  and  _40
REMARK   16  A    between atoms: _40  and  _41
REMARK   17  A    between atoms: _41  and  _42
REMARK   18  A    between atoms: _45  and  _47
REMARK   19  A    between atoms: _47  and  _48
REMARK   20  A    between atoms: _47  and  _50
REMARK   21  A    between atoms: _50  and  _51
REMARK   22  A    between atoms: _56  and  _58
REMARK   23  A    between atoms: _58  and  _59
REMARK   24  A    between atoms: _58  and  _61
REMARK   25  A    between atoms: _61  and  _62
REMARK   26  A    between atoms: _62  and  _63
REMARK   27  A    between atoms: _63  and  _64
REMARK   28  A    between atoms: _73  and  _75
REMARK   29  A    between atoms: _75  and  _76
REMARK   30  A    between atoms: _75  and  _78
REMARK   31  A    between atoms: _78  and  _79
REMARK   32  A    between atoms: _83  and  _84
REMARK   33  A    between atoms: _89  and  _91
REMARK   34  A    between atoms: _91  and  _92
REMARK   35  A    between atoms: _91  and  _94
REMARK   36  A    between atoms: _94  and  _95
REMARK   37  A    between atoms: _95  and  _96
REMARK   38  A    between atoms: _98  and  _100
REMARK   39  A    between atoms: _100  and  _101
REMARK   40  A    between atoms: _100  and  _103
REMARK   41  A    between atoms: _103  and  _104
REMARK   42  A    between atoms: _104  and  _105
REMARK   43  A    between atoms: _110  and  _112
REMARK   44  A    between atoms: _112  and  _113
REMARK   45  A    between atoms: _112  and  _115
REMARK   46  A    between atoms: _115  and  _116
REMARK   47  A    between atoms: _119  and  _121
REMARK   48  A    between atoms: _121  and  _122
REMARK   49  A    between atoms: _121  and  _124
REMARK   50  A    between atoms: _124  and  _125
REMARK   51  A    between atoms: _125  and  _126
REMARK   52  A    between atoms: _126  and  _127
REMARK   53  A    between atoms: _127  and  CO_294
REMARK   54  A    between atoms: _129  and  _131
REMARK   55  A    between atoms: _131  and  _132
REMARK   56  A    between atoms: _131  and  _134
REMARK   57  A    between atoms: _134  and  _135
REMARK   58  A    between atoms: _141  and  _143
REMARK   59  A    between atoms: _143  and  _144
REMARK   60  A    between atoms: _143  and  _146
REMARK   61  A    between atoms: _146  and  _147
REMARK   62  A    between atoms: _150  and  _152
REMARK   63  A    between atoms: _152  and  _153
REMARK   64  A    between atoms: _156  and  _157
REMARK   65  A    between atoms: _162  and  _164
REMARK   66  A    between atoms: _164  and  _165
REMARK   67  A    between atoms: _168  and  _170
REMARK   68  A    between atoms: _170  and  _171
REMARK   69  A    between atoms: _170  and  _173
REMARK   70  A    between atoms: _173  and  _174
REMARK   71  A    between atoms: _174  and  _176
REMARK   72  A    between atoms: _176  and  CO_294
REMARK   73  A    between atoms: _177  and  _179
REMARK   74  A    between atoms: _179  and  _180
REMARK   75  A    between atoms: _179  and  _182
REMARK   76  A    between atoms: _182  and  _183
REMARK   77  A    between atoms: _186  and  _188
REMARK   78  A    between atoms: _188  and  _189
REMARK   79  A    between atoms: _188  and  _191
REMARK   80  A    between atoms: _191  and  _192
REMARK   81  A    between atoms: _194  and  _196
REMARK   82  A    between atoms: _196  and  _197
REMARK   83  A    between atoms: _200  and  _202
REMARK   84  A    between atoms: _202  and  _203
REMARK   85  A    between atoms: _202  and  _205
REMARK   86  A    between atoms: _205  and  _206
REMARK   87  A    between atoms: _209  and  _211
REMARK   88  A    between atoms: _211  and  _212
REMARK   89  A    between atoms: _215  and  _216
REMARK   90  A    between atoms: _221  and  _223
REMARK   91  A    between atoms: _223  and  _224
REMARK   92  A    between atoms: _223  and  _226
REMARK   93  A    between atoms: _226  and  _227
REMARK   94  A    between atoms: _230  and  _232
REMARK   95  A    between atoms: _232  and  _233
REMARK   96  A    between atoms: _232  and  _235
REMARK   97  A    between atoms: _235  and  _236
REMARK   98  A    between atoms: _239  and  _241
REMARK   99  A    between atoms: _241  and  _242
REMARK  100  A    between atoms: _241  and  _244
REMARK  101  A    between atoms: _244  and  _245
REMARK  102  A    between atoms: _248  and  _250
REMARK  103  A    between atoms: _250  and  _251
REMARK  104  A    between atoms: _254  and  _256
REMARK  105  A    between atoms: _256  and  _257
REMARK  106  A    between atoms: _256  and  _259
REMARK  107  A    between atoms: _262  and  _264
REMARK  108  A    between atoms: _264  and  _265
REMARK  109  A    between atoms: _267  and  _269
REMARK  110  A    between atoms: _269  and  _270
REMARK  111  A    between atoms: _269  and  _272
REMARK  112  A    between atoms: _275  and  _277
REMARK  113  A    between atoms: _277  and  _278
REMARK  114  A    between atoms: _280  and  _282
REMARK  115  A    between atoms: _282  and  _283
REMARK  116  A    between atoms: _282  and  _285
REMARK  117  A    between atoms: _285  and  _286
REMARK  118  A    between atoms: _288  and  _290
REMARK  119  A    between atoms: _290  and  _291
REMARK                            x       y       z     vdW  Elec       q    Type
REMARK                         _______ _______ _______ _____ _____    ______ ____
ROOT
ATOM      1  O   HOH     1     -46.082 -30.540 -24.064  0.00  0.00    +0.000 OA
ENDROOT
TORSDOF 0
REMARK  Name = ../refined-set-2016/4b5s/4b5s_pocket.pdb
REMARK  119 active torsions:
REMARK  status: ('A' for Active; 'I' for Inactive)
REMARK    1  A    between atoms: _1  and  _3
REMARK    2  A    between atoms: _3  and  _4
REMARK    3  A    between atoms: _3  and  _6
REMARK    4  A    between atoms: _6  and  _7
REMARK    5  A    between atoms: _17  and  _19
REMARK    6  A    between atoms: _19  and  _20
REMARK    7  A    between atoms: _19  and  _22
REMARK    8  A    between atoms: _22  and  _23
REMARK    9  A    between atoms: _26  and  _28
REMARK   10  A    between atoms: _28  and  _29
REMARK   11  A    between atoms: _28  and  _31
REMARK   12  A    between atoms: _31  and  _32
REMARK   13  A    between atoms: _35  and  _37
REMARK   14  A    between atoms: _37  and  _38
REMARK   15  A    between atoms: _37  and  _40
REMARK   16  A    between atoms: _40  and  _41
REMARK   17  A    between atoms: _41  and  _42
REMARK   18  A    between atoms: _45  and  _47
REMARK   19  A    between atoms: _47  and  _48
REMARK   20  A    between atoms: _47  and  _50
REMARK   21  A    between atoms: _50  and  _51
REMARK   22  A    between atoms: _56  and  _58
REMARK   23  A    between atoms: _58  and  _59
REMARK   24  A    between atoms: _58  and  _61
REMARK   25  A    between atoms: _61  and  _62
REMARK   26  A    between atoms: _62  and  _63
REMARK   27  A    between atoms: _63  and  _64
REMARK   28  A    between atoms: _73  and  _75
REMARK   29  A    between atoms: _75  and  _76
REMARK   30  A    between atoms: _75  and  _78
REMARK   31  A    between atoms: _78  and  _79
REMARK   32  A    between atoms: _83  and  _84
REMARK   33  A    between atoms: _89  and  _91
REMARK   34  A    between atoms: _91  and  _92
REMARK   35  A    between atoms: _91  and  _94
REMARK   36  A    between atoms: _94  and  _95
REMARK   37  A    between atoms: _95  and  _96
REMARK   38  A    between atoms: _98  and  _100
REMARK   39  A    between atoms: _100  and  _101
REMARK   40  A    between atoms: _100  and  _103
REMARK   41  A    between atoms: _103  and  _104
REMARK   42  A    between atoms: _104  and  _105
REMARK   43  A    between atoms: _110  and  _112
REMARK   44  A    between atoms: _112  and  _113
REMARK   45  A    between atoms: _112  and  _115
REMARK   46  A    between atoms: _115  and  _116
REMARK   47  A    between atoms: _119  and  _121
REMARK   48  A    between atoms: _121  and  _122
REMARK   49  A    between atoms: _121  and  _124
REMARK   50  A    between atoms: _124  and  _125
REMARK   51  A    between atoms: _125  and  _126
REMARK   52  A    between atoms: _126  and  _127
REMARK   53  A    between atoms: _127  and  CO_294
REMARK   54  A    between atoms: _129  and  _131
REMARK   55  A    between atoms: _131  and  _132
REMARK   56  A    between atoms: _131  and  _134
REMARK   57  A    between atoms: _134  and  _135
REMARK   58  A    between atoms: _141  and  _143
REMARK   59  A    between atoms: _143  and  _144
REMARK   60  A    between atoms: _143  and  _146
REMARK   61  A    between atoms: _146  and  _147
REMARK   62  A    between atoms: _150  and  _152
REMARK   63  A    between atoms: _152  and  _153
REMARK   64  A    between atoms: _156  and  _157
REMARK   65  A    between atoms: _162  and  _164
REMARK   66  A    between atoms: _164  and  _165
REMARK   67  A    between atoms: _168  and  _170
REMARK   68  A    between atoms: _170  and  _171
REMARK   69  A    between atoms: _170  and  _173
REMARK   70  A    between atoms: _173  and  _174
REMARK   71  A    between atoms: _174  and  _176
REMARK   72  A    between atoms: _176  and  CO_294
REMARK   73  A    between atoms: _177  and  _179
REMARK   74  A    between atoms: _179  and  _180
REMARK   75  A    between atoms: _179  and  _182
REMARK   76  A    between atoms: _182  and  _183
REMARK   77  A    between atoms: _186  and  _188
REMARK   78  A    between atoms: _188  and  _189
REMARK   79  A    between atoms: _188  and  _191
REMARK   80  A    between atoms: _191  and  _192
REMARK   81  A    between atoms: _194  and  _196
REMARK   82  A    between atoms: _196  and  _197
REMARK   83  A    between atoms: _200  and  _202
REMARK   84  A    between atoms: _202  and  _203
REMARK   85  A    between atoms: _202  and  _205
REMARK   86  A    between atoms: _205  and  _206
REMARK   87  A    between atoms: _209  and  _211
REMARK   88  A    between atoms: _211  and  _212
REMARK   89  A    between atoms: _215  and  _216
REMARK   90  A    between atoms: _221  and  _223
REMARK   91  A    between atoms: _223  and  _224
REMARK   92  A    between atoms: _223  and  _226
REMARK   93  A    between atoms: _226  and  _227
REMARK   94  A    between atoms: _230  and  _232
REMARK   95  A    between atoms: _232  and  _233
REMARK   96  A    between atoms: _232  and  _235
REMARK   97  A    between atoms: _235  and  _236
REMARK   98  A    between atoms: _239  and  _241
REMARK   99  A    between atoms: _241  and  _242
REMARK  100  A    between atoms: _241  and  _244
REMARK  101  A    between atoms: _244  and  _245
REMARK  102  A    between atoms: _248  and  _250
REMARK  103  A    between atoms: _250  and  _251
REMARK  104  A    between atoms: _254  and  _256
REMARK  105  A    between atoms: _256  and  _257
REMARK  106  A    between atoms: _256  and  _259
REMARK  107  A    between atoms: _262  and  _264
REMARK  108  A    between atoms: _264  and  _265
REMARK  109  A    between atoms: _267  and  _269
REMARK  110  A    between atoms: _269  and  _270
REMARK  111  A    between atoms: _269  and  _272
REMARK  112  A    between atoms: _275  and  _277
REMARK  113  A    between atoms: _277  and  _278
REMARK  114  A    between atoms: _280  and  _282
REMARK  115  A    between atoms: _282  and  _283
REMARK  116  A    between atoms: _282  and  _285
REMARK  117  A    between atoms: _285  and  _286
REMARK  118  A    between atoms: _288  and  _290
REMARK  119  A    between atoms: _290  and  _291
REMARK                            x       y       z     vdW  Elec       q    Type
REMARK                         _______ _______ _______ _____ _____    ______ ____
ROOT
ATOM      1  O   HOH     1     -45.514 -29.516 -17.851  0.00  0.00    +0.000 OA
ENDROOT
TORSDOF 0
REMARK  Name = ../refined-set-2016/4b5s/4b5s_pocket.pdb
REMARK  119 active torsions:
REMARK  status: ('A' for Active; 'I' for Inactive)
REMARK    1  A    between atoms: _1  and  _3
REMARK    2  A    between atoms: _3  and  _4
REMARK    3  A    between atoms: _3  and  _6
REMARK    4  A    between atoms: _6  and  _7
REMARK    5  A    between atoms: _17  and  _19
REMARK    6  A    between atoms: _19  and  _20
REMARK    7  A    between atoms: _19  and  _22
REMARK    8  A    between atoms: _22  and  _23
REMARK    9  A    between atoms: _26  and  _28
REMARK   10  A    between atoms: _28  and  _29
REMARK   11  A    between atoms: _28  and  _31
REMARK   12  A    between atoms: _31  and  _32
REMARK   13  A    between atoms: _35  and  _37
REMARK   14  A    between atoms: _37  and  _38
REMARK   15  A    between atoms: _37  and  _40
REMARK   16  A    between atoms: _40  and  _41
REMARK   17  A    between atoms: _41  and  _42
REMARK   18  A    between atoms: _45  and  _47
REMARK   19  A    between atoms: _47  and  _48
REMARK   20  A    between atoms: _47  and  _50
REMARK   21  A    between atoms: _50  and  _51
REMARK   22  A    between atoms: _56  and  _58
REMARK   23  A    between atoms: _58  and  _59
REMARK   24  A    between atoms: _58  and  _61
REMARK   25  A    between atoms: _61  and  _62
REMARK   26  A    between atoms: _62  and  _63
REMARK   27  A    between atoms: _63  and  _64
REMARK   28  A    between atoms: _73  and  _75
REMARK   29  A    between atoms: _75  and  _76
REMARK   30  A    between atoms: _75  and  _78
REMARK   31  A    between atoms: _78  and  _79
REMARK   32  A    between atoms: _83  and  _84
REMARK   33  A    between atoms: _89  and  _91
REMARK   34  A    between atoms: _91  and  _92
REMARK   35  A    between atoms: _91  and  _94
REMARK   36  A    between atoms: _94  and  _95
REMARK   37  A    between atoms: _95  and  _96
REMARK   38  A    between atoms: _98  and  _100
REMARK   39  A    between atoms: _100  and  _101
REMARK   40  A    between atoms: _100  and  _103
REMARK   41  A    between atoms: _103  and  _104
REMARK   42  A    between atoms: _104  and  _105
REMARK   43  A    between atoms: _110  and  _112
REMARK   44  A    between atoms: _112  and  _113
REMARK   45  A    between atoms: _112  and  _115
REMARK   46  A    between atoms: _115  and  _116
REMARK   47  A    between atoms: _119  and  _121
REMARK   48  A    between atoms: _121  and  _122
REMARK   49  A    between atoms: _121  and  _124
REMARK   50  A    between atoms: _124  and  _125
REMARK   51  A    between atoms: _125  and  _126
REMARK   52  A    between atoms: _126  and  _127
REMARK   53  A    between atoms: _127  and  CO_294
REMARK   54  A    between atoms: _129  and  _131
REMARK   55  A    between atoms: _131  and  _132
REMARK   56  A    between atoms: _131  and  _134
REMARK   57  A    between atoms: _134  and  _135
REMARK   58  A    between atoms: _141  and  _143
REMARK   59  A    between atoms: _143  and  _144
REMARK   60  A    between atoms: _143  and  _146
REMARK   61  A    between atoms: _146  and  _147
REMARK   62  A    between atoms: _150  and  _152
REMARK   63  A    between atoms: _152  and  _153
REMARK   64  A    between atoms: _156  and  _157
REMARK   65  A    between atoms: _162  and  _164
REMARK   66  A    between atoms: _164  and  _165
REMARK   67  A    between atoms: _168  and  _170
REMARK   68  A    between atoms: _170  and  _171
REMARK   69  A    between atoms: _170  and  _173
REMARK   70  A    between atoms: _173  and  _174
REMARK   71  A    between atoms: _174  and  _176
REMARK   72  A    between atoms: _176  and  CO_294
REMARK   73  A    between atoms: _177  and  _179
REMARK   74  A    between atoms: _179  and  _180
REMARK   75  A    between atoms: _179  and  _182
REMARK   76  A    between atoms: _182  and  _183
REMARK   77  A    between atoms: _186  and  _188
REMARK   78  A    between atoms: _188  and  _189
REMARK   79  A    between atoms: _188  and  _191
REMARK   80  A    between atoms: _191  and  _192
REMARK   81  A    between atoms: _194  and  _196
REMARK   82  A    between atoms: _196  and  _197
REMARK   83  A    between atoms: _200  and  _202
REMARK   84  A    between atoms: _202  and  _203
REMARK   85  A    between atoms: _202  and  _205
REMARK   86  A    between atoms: _205  and  _206
REMARK   87  A    between atoms: _209  and  _211
REMARK   88  A    between atoms: _211  and  _212
REMARK   89  A    between atoms: _215  and  _216
REMARK   90  A    between atoms: _221  and  _223
REMARK   91  A    between atoms: _223  and  _224
REMARK   92  A    between atoms: _223  and  _226
REMARK   93  A    between atoms: _226  and  _227
REMARK   94  A    between atoms: _230  and  _232
REMARK   95  A    between atoms: _232  and  _233
REMARK   96  A    between atoms: _232  and  _235
REMARK   97  A    between atoms: _235  and  _236
REMARK   98  A    between atoms: _239  and  _241
REMARK   99  A    between atoms: _241  and  _242
REMARK  100  A    between atoms: _241  and  _244
REMARK  101  A    between atoms: _244  and  _245
REMARK  102  A    between atoms: _248  and  _250
REMARK  103  A    between atoms: _250  and  _251
REMARK  104  A    between atoms: _254  and  _256
REMARK  105  A    between atoms: _256  and  _257
REMARK  106  A    between atoms: _256  and  _259
REMARK  107  A    between atoms: _262  and  _264
REMARK  108  A    between atoms: _264  and  _265
REMARK  109  A    between atoms: _267  and  _269
REMARK  110  A    between atoms: _269  and  _270
REMARK  111  A    between atoms: _269  and  _272
REMARK  112  A    between atoms: _275  and  _277
REMARK  113  A    between atoms: _277  and  _278
REMARK  114  A    between atoms: _280  and  _282
REMARK  115  A    between atoms: _282  and  _283
REMARK  116  A    between atoms: _282  and  _285
REMARK  117  A    between atoms: _285  and  _286
REMARK  118  A    between atoms: _288  and  _290
REMARK  119  A    between atoms: _290  and  _291
REMARK                            x       y       z     vdW  Elec       q    Type
REMARK                         _______ _______ _______ _____ _____    ______ ____
ROOT
ATOM      1  O   HOH     1     -47.840 -26.103 -12.547  0.00  0.00    +0.000 OA
ENDROOT
TORSDOF 0
REMARK  Name = ../refined-set-2016/4b5s/4b5s_pocket.pdb
REMARK  119 active torsions:
REMARK  status: ('A' for Active; 'I' for Inactive)
REMARK    1  A    between atoms: _1  and  _3
REMARK    2  A    between atoms: _3  and  _4
REMARK    3  A    between atoms: _3  and  _6
REMARK    4  A    between atoms: _6  and  _7
REMARK    5  A    between atoms: _17  and  _19
REMARK    6  A    between atoms: _19  and  _20
REMARK    7  A    between atoms: _19  and  _22
REMARK    8  A    between atoms: _22  and  _23
REMARK    9  A    between atoms: _26  and  _28
REMARK   10  A    between atoms: _28  and  _29
REMARK   11  A    between atoms: _28  and  _31
REMARK   12  A    between atoms: _31  and  _32
REMARK   13  A    between atoms: _35  and  _37
REMARK   14  A    between atoms: _37  and  _38
REMARK   15  A    between atoms: _37  and  _40
REMARK   16  A    between atoms: _40  and  _41
REMARK   17  A    between atoms: _41  and  _42
REMARK   18  A    between atoms: _45  and  _47
REMARK   19  A    between atoms: _47  and  _48
REMARK   20  A    between atoms: _47  and  _50
REMARK   21  A    between atoms: _50  and  _51
REMARK   22  A    between atoms: _56  and  _58
REMARK   23  A    between atoms: _58  and  _59
REMARK   24  A    between atoms: _58  and  _61
REMARK   25  A    between atoms: _61  and  _62
REMARK   26  A    between atoms: _62  and  _63
REMARK   27  A    between atoms: _63  and  _64
REMARK   28  A    between atoms: _73  and  _75
REMARK   29  A    between atoms: _75  and  _76
REMARK   30  A    between atoms: _75  and  _78
REMARK   31  A    between atoms: _78  and  _79
REMARK   32  A    between atoms: _83  and  _84
REMARK   33  A    between atoms: _89  and  _91
REMARK   34  A    between atoms: _91  and  _92
REMARK   35  A    between atoms: _91  and  _94
REMARK   36  A    between atoms: _94  and  _95
REMARK   37  A    between atoms: _95  and  _96
REMARK   38  A    between atoms: _98  and  _100
REMARK   39  A    between atoms: _100  and  _101
REMARK   40  A    between atoms: _100  and  _103
REMARK   41  A    between atoms: _103  and  _104
REMARK   42  A    between atoms: _104  and  _105
REMARK   43  A    between atoms: _110  and  _112
REMARK   44  A    between atoms: _112  and  _113
REMARK   45  A    between atoms: _112  and  _115
REMARK   46  A    between atoms: _115  and  _116
REMARK   47  A    between atoms: _119  and  _121
REMARK   48  A    between atoms: _121  and  _122
REMARK   49  A    between atoms: _121  and  _124
REMARK   50  A    between atoms: _124  and  _125
REMARK   51  A    between atoms: _125  and  _126
REMARK   52  A    between atoms: _126  and  _127
REMARK   53  A    between atoms: _127  and  CO_294
REMARK   54  A    between atoms: _129  and  _131
REMARK   55  A    between atoms: _131  and  _132
REMARK   56  A    between atoms: _131  and  _134
REMARK   57  A    between atoms: _134  and  _135
REMARK   58  A    between atoms: _141  and  _143
REMARK   59  A    between atoms: _143  and  _144
REMARK   60  A    between atoms: _143  and  _146
REMARK   61  A    between atoms: _146  and  _147
REMARK   62  A    between atoms: _150  and  _152
REMARK   63  A    between atoms: _152  and  _153
REMARK   64  A    between atoms: _156  and  _157
REMARK   65  A    between atoms: _162  and  _164
REMARK   66  A    between atoms: _164  and  _165
REMARK   67  A    between atoms: _168  and  _170
REMARK   68  A    between atoms: _170  and  _171
REMARK   69  A    between atoms: _170  and  _173
REMARK   70  A    between atoms: _173  and  _174
REMARK   71  A    between atoms: _174  and  _176
REMARK   72  A    between atoms: _176  and  CO_294
REMARK   73  A    between atoms: _177  and  _179
REMARK   74  A    between atoms: _179  and  _180
REMARK   75  A    between atoms: _179  and  _182
REMARK   76  A    between atoms: _182  and  _183
REMARK   77  A    between atoms: _186  and  _188
REMARK   78  A    between atoms: _188  and  _189
REMARK   79  A    between atoms: _188  and  _191
REMARK   80  A    between atoms: _191  and  _192
REMARK   81  A    between atoms: _194  and  _196
REMARK   82  A    between atoms: _196  and  _197
REMARK   83  A    between atoms: _200  and  _202
REMARK   84  A    between atoms: _202  and  _203
REMARK   85  A    between atoms: _202  and  _205
REMARK   86  A    between atoms: _205  and  _206
REMARK   87  A    between atoms: _209  and  _211
REMARK   88  A    between atoms: _211  and  _212
REMARK   89  A    between atoms: _215  and  _216
REMARK   90  A    between atoms: _221  and  _223
REMARK   91  A    between atoms: _223  and  _224
REMARK   92  A    between atoms: _223  and  _226
REMARK   93  A    between atoms: _226  and  _227
REMARK   94  A    between atoms: _230  and  _232
REMARK   95  A    between atoms: _232  and  _233
REMARK   96  A    between atoms: _232  and  _235
REMARK   97  A    between atoms: _235  and  _236
REMARK   98  A    between atoms: _239  and  _241
REMARK   99  A    between atoms: _241  and  _242
REMARK  100  A    between atoms: _241  and  _244
REMARK  101  A    between atoms: _244  and  _245
REMARK  102  A    between atoms: _248  and  _250
REMARK  103  A    between atoms: _250  and  _251
REMARK  104  A    between atoms: _254  and  _256
REMARK  105  A    between atoms: _256  and  _257
REMARK  106  A    between atoms: _256  and  _259
REMARK  107  A    between atoms: _262  and  _264
REMARK  108  A    between atoms: _264  and  _265
REMARK  109  A    between atoms: _267  and  _269
REMARK  110  A    between atoms: _269  and  _270
REMARK  111  A    between atoms: _269  and  _272
REMARK  112  A    between atoms: _275  and  _277
REMARK  113  A    between atoms: _277  and  _278
REMARK  114  A    between atoms: _280  and  _282
REMARK  115  A    between atoms: _282  and  _283
REMARK  116  A    between atoms: _282  and  _285
REMARK  117  A    between atoms: _285  and  _286
REMARK  118  A    between atoms: _288  and  _290
REMARK  119  A    between atoms: _290  and  _291
REMARK                            x       y       z     vdW  Elec       q    Type
REMARK                         _______ _______ _______ _____ _____    ______ ____
ROOT
ATOM      1  O   HOH     1     -52.570 -32.574 -25.355  0.00  0.00    +0.000 OA
ENDROOT
TORSDOF 0
REMARK  Name = ../refined-set-2016/4b5s/4b5s_pocket.pdb
REMARK  119 active torsions:
REMARK  status: ('A' for Active; 'I' for Inactive)
REMARK    1  A    between atoms: _1  and  _3
REMARK    2  A    between atoms: _3  and  _4
REMARK    3  A    between atoms: _3  and  _6
REMARK    4  A    between atoms: _6  and  _7
REMARK    5  A    between atoms: _17  and  _19
REMARK    6  A    between atoms: _19  and  _20
REMARK    7  A    between atoms: _19  and  _22
REMARK    8  A    between atoms: _22  and  _23
REMARK    9  A    between atoms: _26  and  _28
REMARK   10  A    between atoms: _28  and  _29
REMARK   11  A    between atoms: _28  and  _31
REMARK   12  A    between atoms: _31  and  _32
REMARK   13  A    between atoms: _35  and  _37
REMARK   14  A    between atoms: _37  and  _38
REMARK   15  A    between atoms: _37  and  _40
REMARK   16  A    between atoms: _40  and  _41
REMARK   17  A    between atoms: _41  and  _42
REMARK   18  A    between atoms: _45  and  _47
REMARK   19  A    between atoms: _47  and  _48
REMARK   20  A    between atoms: _47  and  _50
REMARK   21  A    between atoms: _50  and  _51
REMARK   22  A    between atoms: _56  and  _58
REMARK   23  A    between atoms: _58  and  _59
REMARK   24  A    between atoms: _58  and  _61
REMARK   25  A    between atoms: _61  and  _62
REMARK   26  A    between atoms: _62  and  _63
REMARK   27  A    between atoms: _63  and  _64
REMARK   28  A    between atoms: _73  and  _75
REMARK   29  A    between atoms: _75  and  _76
REMARK   30  A    between atoms: _75  and  _78
REMARK   31  A    between atoms: _78  and  _79
REMARK   32  A    between atoms: _83  and  _84
REMARK   33  A    between atoms: _89  and  _91
REMARK   34  A    between atoms: _91  and  _92
REMARK   35  A    between atoms: _91  and  _94
REMARK   36  A    between atoms: _94  and  _95
REMARK   37  A    between atoms: _95  and  _96
REMARK   38  A    between atoms: _98  and  _100
REMARK   39  A    between atoms: _100  and  _101
REMARK   40  A    between atoms: _100  and  _103
REMARK   41  A    between atoms: _103  and  _104
REMARK   42  A    between atoms: _104  and  _105
REMARK   43  A    between atoms: _110  and  _112
REMARK   44  A    between atoms: _112  and  _113
REMARK   45  A    between atoms: _112  and  _115
REMARK   46  A    between atoms: _115  and  _116
REMARK   47  A    between atoms: _119  and  _121
REMARK   48  A    between atoms: _121  and  _122
REMARK   49  A    between atoms: _121  and  _124
REMARK   50  A    between atoms: _124  and  _125
REMARK   51  A    between atoms: _125  and  _126
REMARK   52  A    between atoms: _126  and  _127
REMARK   53  A    between atoms: _127  and  CO_294
REMARK   54  A    between atoms: _129  and  _131
REMARK   55  A    between atoms: _131  and  _132
REMARK   56  A    between atoms: _131  and  _134
REMARK   57  A    between atoms: _134  and  _135
REMARK   58  A    between atoms: _141  and  _143
REMARK   59  A    between atoms: _143  and  _144
REMARK   60  A    between atoms: _143  and  _146
REMARK   61  A    between atoms: _146  and  _147
REMARK   62  A    between atoms: _150  and  _152
REMARK   63  A    between atoms: _152  and  _153
REMARK   64  A    between atoms: _156  and  _157
REMARK   65  A    between atoms: _162  and  _164
REMARK   66  A    between atoms: _164  and  _165
REMARK   67  A    between atoms: _168  and  _170
REMARK   68  A    between atoms: _170  and  _171
REMARK   69  A    between atoms: _170  and  _173
REMARK   70  A    between atoms: _173  and  _174
REMARK   71  A    between atoms: _174  and  _176
REMARK   72  A    between atoms: _176  and  CO_294
REMARK   73  A    between atoms: _177  and  _179
REMARK   74  A    between atoms: _179  and  _180
REMARK   75  A    between atoms: _179  and  _182
REMARK   76  A    between atoms: _182  and  _183
REMARK   77  A    between atoms: _186  and  _188
REMARK   78  A    between atoms: _188  and  _189
REMARK   79  A    between atoms: _188  and  _191
REMARK   80  A    between atoms: _191  and  _192
REMARK   81  A    between atoms: _194  and  _196
REMARK   82  A    between atoms: _196  and  _197
REMARK   83  A    between atoms: _200  and  _202
REMARK   84  A    between atoms: _202  and  _203
REMARK   85  A    between atoms: _202  and  _205
REMARK   86  A    between atoms: _205  and  _206
REMARK   87  A    between atoms: _209  and  _211
REMARK   88  A    between atoms: _211  and  _212
REMARK   89  A    between atoms: _215  and  _216
REMARK   90  A    between atoms: _221  and  _223
REMARK   91  A    between atoms: _223  and  _224
REMARK   92  A    between atoms: _223  and  _226
REMARK   93  A    between atoms: _226  and  _227
REMARK   94  A    between atoms: _230  and  _232
REMARK   95  A    between atoms: _232  and  _233
REMARK   96  A    between atoms: _232  and  _235
REMARK   97  A    between atoms: _235  and  _236
REMARK   98  A    between atoms: _239  and  _241
REMARK   99  A    between atoms: _241  and  _242
REMARK  100  A    between atoms: _241  and  _244
REMARK  101  A    between atoms: _244  and  _245
REMARK  102  A    between atoms: _248  and  _250
REMARK  103  A    between atoms: _250  and  _251
REMARK  104  A    between atoms: _254  and  _256
REMARK  105  A    between atoms: _256  and  _257
REMARK  106  A    between atoms: _256  and  _259
REMARK  107  A    between atoms: _262  and  _264
REMARK  108  A    between atoms: _264  and  _265
REMARK  109  A    between atoms: _267  and  _269
REMARK  110  A    between atoms: _269  and  _270
REMARK  111  A    between atoms: _269  and  _272
REMARK  112  A    between atoms: _275  and  _277
REMARK  113  A    between atoms: _277  and  _278
REMARK  114  A    between atoms: _280  and  _282
REMARK  115  A    between atoms: _282  and  _283
REMARK  116  A    between atoms: _282  and  _285
REMARK  117  A    between atoms: _285  and  _286
REMARK  118  A    between atoms: _288  and  _290
REMARK  119  A    between atoms: _290  and  _291
REMARK                            x       y       z     vdW  Elec       q    Type
REMARK                         _______ _______ _______ _____ _____    ______ ____
ROOT
ATOM      1  O   HOH     1     -51.042 -29.479 -26.030  0.00  0.00    +0.000 OA
ENDROOT
TORSDOF 0
REMARK  Name = ../refined-set-2016/4b5s/4b5s_pocket.pdb
REMARK  119 active torsions:
REMARK  status: ('A' for Active; 'I' for Inactive)
REMARK    1  A    between atoms: _1  and  _3
REMARK    2  A    between atoms: _3  and  _4
REMARK    3  A    between atoms: _3  and  _6
REMARK    4  A    between atoms: _6  and  _7
REMARK    5  A    between atoms: _17  and  _19
REMARK    6  A    between atoms: _19  and  _20
REMARK    7  A    between atoms: _19  and  _22
REMARK    8  A    between atoms: _22  and  _23
REMARK    9  A    between atoms: _26  and  _28
REMARK   10  A    between atoms: _28  and  _29
REMARK   11  A    between atoms: _28  and  _31
REMARK   12  A    between atoms: _31  and  _32
REMARK   13  A    between atoms: _35  and  _37
REMARK   14  A    between atoms: _37  and  _38
REMARK   15  A    between atoms: _37  and  _40
REMARK   16  A    between atoms: _40  and  _41
REMARK   17  A    between atoms: _41  and  _42
REMARK   18  A    between atoms: _45  and  _47
REMARK   19  A    between atoms: _47  and  _48
REMARK   20  A    between atoms: _47  and  _50
REMARK   21  A    between atoms: _50  and  _51
REMARK   22  A    between atoms: _56  and  _58
REMARK   23  A    between atoms: _58  and  _59
REMARK   24  A    between atoms: _58  and  _61
REMARK   25  A    between atoms: _61  and  _62
REMARK   26  A    between atoms: _62  and  _63
REMARK   27  A    between atoms: _63  and  _64
REMARK   28  A    between atoms: _73  and  _75
REMARK   29  A    between atoms: _75  and  _76
REMARK   30  A    between atoms: _75  and  _78
REMARK   31  A    between atoms: _78  and  _79
REMARK   32  A    between atoms: _83  and  _84
REMARK   33  A    between atoms: _89  and  _91
REMARK   34  A    between atoms: _91  and  _92
REMARK   35  A    between atoms: _91  and  _94
REMARK   36  A    between atoms: _94  and  _95
REMARK   37  A    between atoms: _95  and  _96
REMARK   38  A    between atoms: _98  and  _100
REMARK   39  A    between atoms: _100  and  _101
REMARK   40  A    between atoms: _100  and  _103
REMARK   41  A    between atoms: _103  and  _104
REMARK   42  A    between atoms: _104  and  _105
REMARK   43  A    between atoms: _110  and  _112
REMARK   44  A    between atoms: _112  and  _113
REMARK   45  A    between atoms: _112  and  _115
REMARK   46  A    between atoms: _115  and  _116
REMARK   47  A    between atoms: _119  and  _121
REMARK   48  A    between atoms: _121  and  _122
REMARK   49  A    between atoms: _121  and  _124
REMARK   50  A    between atoms: _124  and  _125
REMARK   51  A    between atoms: _125  and  _126
REMARK   52  A    between atoms: _126  and  _127
REMARK   53  A    between atoms: _127  and  CO_294
REMARK   54  A    between atoms: _129  and  _131
REMARK   55  A    between atoms: _131  and  _132
REMARK   56  A    between atoms: _131  and  _134
REMARK   57  A    between atoms: _134  and  _135
REMARK   58  A    between atoms: _141  and  _143
REMARK   59  A    between atoms: _143  and  _144
REMARK   60  A    between atoms: _143  and  _146
REMARK   61  A    between atoms: _146  and  _147
REMARK   62  A    between atoms: _150  and  _152
REMARK   63  A    between atoms: _152  and  _153
REMARK   64  A    between atoms: _156  and  _157
REMARK   65  A    between atoms: _162  and  _164
REMARK   66  A    between atoms: _164  and  _165
REMARK   67  A    between atoms: _168  and  _170
REMARK   68  A    between atoms: _170  and  _171
REMARK   69  A    between atoms: _170  and  _173
REMARK   70  A    between atoms: _173  and  _174
REMARK   71  A    between atoms: _174  and  _176
REMARK   72  A    between atoms: _176  and  CO_294
REMARK   73  A    between atoms: _177  and  _179
REMARK   74  A    between atoms: _179  and  _180
REMARK   75  A    between atoms: _179  and  _182
REMARK   76  A    between atoms: _182  and  _183
REMARK   77  A    between atoms: _186  and  _188
REMARK   78  A    between atoms: _188  and  _189
REMARK   79  A    between atoms: _188  and  _191
REMARK   80  A    between atoms: _191  and  _192
REMARK   81  A    between atoms: _194  and  _196
REMARK   82  A    between atoms: _196  and  _197
REMARK   83  A    between atoms: _200  and  _202
REMARK   84  A    between atoms: _202  and  _203
REMARK   85  A    between atoms: _202  and  _205
REMARK   86  A    between atoms: _205  and  _206
REMARK   87  A    between atoms: _209  and  _211
REMARK   88  A    between atoms: _211  and  _212
REMARK   89  A    between atoms: _215  and  _216
REMARK   90  A    between atoms: _221  and  _223
REMARK   91  A    between atoms: _223  and  _224
REMARK   92  A    between atoms: _223  and  _226
REMARK   93  A    between atoms: _226  and  _227
REMARK   94  A    between atoms: _230  and  _232
REMARK   95  A    between atoms: _232  and  _233
REMARK   96  A    between atoms: _232  and  _235
REMARK   97  A    between atoms: _235  and  _236
REMARK   98  A    between atoms: _239  and  _241
REMARK   99  A    between atoms: _241  and  _242
REMARK  100  A    between atoms: _241  and  _244
REMARK  101  A    between atoms: _244  and  _245
REMARK  102  A    between atoms: _248  and  _250
REMARK  103  A    between atoms: _250  and  _251
REMARK  104  A    between atoms: _254  and  _256
REMARK  105  A    between atoms: _256  and  _257
REMARK  106  A    between atoms: _256  and  _259
REMARK  107  A    between atoms: _262  and  _264
REMARK  108  A    between atoms: _264  and  _265
REMARK  109  A    between atoms: _267  and  _269
REMARK  110  A    between atoms: _269  and  _270
REMARK  111  A    between atoms: _269  and  _272
REMARK  112  A    between atoms: _275  and  _277
REMARK  113  A    between atoms: _277  and  _278
REMARK  114  A    between atoms: _280  and  _282
REMARK  115  A    between atoms: _282  and  _283
REMARK  116  A    between atoms: _282  and  _285
REMARK  117  A    between atoms: _285  and  _286
REMARK  118  A    between atoms: _288  and  _290
REMARK  119  A    between atoms: _290  and  _291
REMARK                            x       y       z     vdW  Elec       q    Type
REMARK                         _______ _______ _______ _____ _____    ______ ____
ROOT
ATOM      1  O   HOH     1     -52.408 -27.040 -15.192  0.00  0.00    +0.000 OA
ENDROOT
TORSDOF 0
REMARK  Name = ../refined-set-2016/4b5s/4b5s_pocket.pdb
REMARK  119 active torsions:
REMARK  status: ('A' for Active; 'I' for Inactive)
REMARK    1  A    between atoms: _1  and  _3
REMARK    2  A    between atoms: _3  and  _4
REMARK    3  A    between atoms: _3  and  _6
REMARK    4  A    between atoms: _6  and  _7
REMARK    5  A    between atoms: _17  and  _19
REMARK    6  A    between atoms: _19  and  _20
REMARK    7  A    between atoms: _19  and  _22
REMARK    8  A    between atoms: _22  and  _23
REMARK    9  A    between atoms: _26  and  _28
REMARK   10  A    between atoms: _28  and  _29
REMARK   11  A    between atoms: _28  and  _31
REMARK   12  A    between atoms: _31  and  _32
REMARK   13  A    between atoms: _35  and  _37
REMARK   14  A    between atoms: _37  and  _38
REMARK   15  A    between atoms: _37  and  _40
REMARK   16  A    between atoms: _40  and  _41
REMARK   17  A    between atoms: _41  and  _42
REMARK   18  A    between atoms: _45  and  _47
REMARK   19  A    between atoms: _47  and  _48
REMARK   20  A    between atoms: _47  and  _50
REMARK   21  A    between atoms: _50  and  _51
REMARK   22  A    between atoms: _56  and  _58
REMARK   23  A    between atoms: _58  and  _59
REMARK   24  A    between atoms: _58  and  _61
REMARK   25  A    between atoms: _61  and  _62
REMARK   26  A    between atoms: _62  and  _63
REMARK   27  A    between atoms: _63  and  _64
REMARK   28  A    between atoms: _73  and  _75
REMARK   29  A    between atoms: _75  and  _76
REMARK   30  A    between atoms: _75  and  _78
REMARK   31  A    between atoms: _78  and  _79
REMARK   32  A    between atoms: _83  and  _84
REMARK   33  A    between atoms: _89  and  _91
REMARK   34  A    between atoms: _91  and  _92
REMARK   35  A    between atoms: _91  and  _94
REMARK   36  A    between atoms: _94  and  _95
REMARK   37  A    between atoms: _95  and  _96
REMARK   38  A    between atoms: _98  and  _100
REMARK   39  A    between atoms: _100  and  _101
REMARK   40  A    between atoms: _100  and  _103
REMARK   41  A    between atoms: _103  and  _104
REMARK   42  A    between atoms: _104  and  _105
REMARK   43  A    between atoms: _110  and  _112
REMARK   44  A    between atoms: _112  and  _113
REMARK   45  A    between atoms: _112  and  _115
REMARK   46  A    between atoms: _115  and  _116
REMARK   47  A    between atoms: _119  and  _121
REMARK   48  A    between atoms: _121  and  _122
REMARK   49  A    between atoms: _121  and  _124
REMARK   50  A    between atoms: _124  and  _125
REMARK   51  A    between atoms: _125  and  _126
REMARK   52  A    between atoms: _126  and  _127
REMARK   53  A    between atoms: _127  and  CO_294
REMARK   54  A    between atoms: _129  and  _131
REMARK   55  A    between atoms: _131  and  _132
REMARK   56  A    between atoms: _131  and  _134
REMARK   57  A    between atoms: _134  and  _135
REMARK   58  A    between atoms: _141  and  _143
REMARK   59  A    between atoms: _143  and  _144
REMARK   60  A    between atoms: _143  and  _146
REMARK   61  A    between atoms: _146  and  _147
REMARK   62  A    between atoms: _150  and  _152
REMARK   63  A    between atoms: _152  and  _153
REMARK   64  A    between atoms: _156  and  _157
REMARK   65  A    between atoms: _162  and  _164
REMARK   66  A    between atoms: _164  and  _165
REMARK   67  A    between atoms: _168  and  _170
REMARK   68  A    between atoms: _170  and  _171
REMARK   69  A    between atoms: _170  and  _173
REMARK   70  A    between atoms: _173  and  _174
REMARK   71  A    between atoms: _174  and  _176
REMARK   72  A    between atoms: _176  and  CO_294
REMARK   73  A    between atoms: _177  and  _179
REMARK   74  A    between atoms: _179  and  _180
REMARK   75  A    between atoms: _179  and  _182
REMARK   76  A    between atoms: _182  and  _183
REMARK   77  A    between atoms: _186  and  _188
REMARK   78  A    between atoms: _188  and  _189
REMARK   79  A    between atoms: _188  and  _191
REMARK   80  A    between atoms: _191  and  _192
REMARK   81  A    between atoms: _194  and  _196
REMARK   82  A    between atoms: _196  and  _197
REMARK   83  A    between atoms: _200  and  _202
REMARK   84  A    between atoms: _202  and  _203
REMARK   85  A    between atoms: _202  and  _205
REMARK   86  A    between atoms: _205  and  _206
REMARK   87  A    between atoms: _209  and  _211
REMARK   88  A    between atoms: _211  and  _212
REMARK   89  A    between atoms: _215  and  _216
REMARK   90  A    between atoms: _221  and  _223
REMARK   91  A    between atoms: _223  and  _224
REMARK   92  A    between atoms: _223  and  _226
REMARK   93  A    between atoms: _226  and  _227
REMARK   94  A    between atoms: _230  and  _232
REMARK   95  A    between atoms: _232  and  _233
REMARK   96  A    between atoms: _232  and  _235
REMARK   97  A    between atoms: _235  and  _236
REMARK   98  A    between atoms: _239  and  _241
REMARK   99  A    between atoms: _241  and  _242
REMARK  100  A    between atoms: _241  and  _244
REMARK  101  A    between atoms: _244  and  _245
REMARK  102  A    between atoms: _248  and  _250
REMARK  103  A    between atoms: _250  and  _251
REMARK  104  A    between atoms: _254  and  _256
REMARK  105  A    between atoms: _256  and  _257
REMARK  106  A    between atoms: _256  and  _259
REMARK  107  A    between atoms: _262  and  _264
REMARK  108  A    between atoms: _264  and  _265
REMARK  109  A    between atoms: _267  and  _269
REMARK  110  A    between atoms: _269  and  _270
REMARK  111  A    between atoms: _269  and  _272
REMARK  112  A    between atoms: _275  and  _277
REMARK  113  A    between atoms: _277  and  _278
REMARK  114  A    between atoms: _280  and  _282
REMARK  115  A    between atoms: _282  and  _283
REMARK  116  A    between atoms: _282  and  _285
REMARK  117  A    between atoms: _285  and  _286
REMARK  118  A    between atoms: _288  and  _290
REMARK  119  A    between atoms: _290  and  _291
REMARK                            x       y       z     vdW  Elec       q    Type
REMARK                         _______ _______ _______ _____ _____    ______ ____
ROOT
ATOM      1  O   HOH     1     -53.614 -24.691 -14.350  0.00  0.00    +0.000 OA
ENDROOT
TORSDOF 0
REMARK  Name = ../refined-set-2016/4b5s/4b5s_pocket.pdb
REMARK  119 active torsions:
REMARK  status: ('A' for Active; 'I' for Inactive)
REMARK    1  A    between atoms: _1  and  _3
REMARK    2  A    between atoms: _3  and  _4
REMARK    3  A    between atoms: _3  and  _6
REMARK    4  A    between atoms: _6  and  _7
REMARK    5  A    between atoms: _17  and  _19
REMARK    6  A    between atoms: _19  and  _20
REMARK    7  A    between atoms: _19  and  _22
REMARK    8  A    between atoms: _22  and  _23
REMARK    9  A    between atoms: _26  and  _28
REMARK   10  A    between atoms: _28  and  _29
REMARK   11  A    between atoms: _28  and  _31
REMARK   12  A    between atoms: _31  and  _32
REMARK   13  A    between atoms: _35  and  _37
REMARK   14  A    between atoms: _37  and  _38
REMARK   15  A    between atoms: _37  and  _40
REMARK   16  A    between atoms: _40  and  _41
REMARK   17  A    between atoms: _41  and  _42
REMARK   18  A    between atoms: _45  and  _47
REMARK   19  A    between atoms: _47  and  _48
REMARK   20  A    between atoms: _47  and  _50
REMARK   21  A    between atoms: _50  and  _51
REMARK   22  A    between atoms: _56  and  _58
REMARK   23  A    between atoms: _58  and  _59
REMARK   24  A    between atoms: _58  and  _61
REMARK   25  A    between atoms: _61  and  _62
REMARK   26  A    between atoms: _62  and  _63
REMARK   27  A    between atoms: _63  and  _64
REMARK   28  A    between atoms: _73  and  _75
REMARK   29  A    between atoms: _75  and  _76
REMARK   30  A    between atoms: _75  and  _78
REMARK   31  A    between atoms: _78  and  _79
REMARK   32  A    between atoms: _83  and  _84
REMARK   33  A    between atoms: _89  and  _91
REMARK   34  A    between atoms: _91  and  _92
REMARK   35  A    between atoms: _91  and  _94
REMARK   36  A    between atoms: _94  and  _95
REMARK   37  A    between atoms: _95  and  _96
REMARK   38  A    between atoms: _98  and  _100
REMARK   39  A    between atoms: _100  and  _101
REMARK   40  A    between atoms: _100  and  _103
REMARK   41  A    between atoms: _103  and  _104
REMARK   42  A    between atoms: _104  and  _105
REMARK   43  A    between atoms: _110  and  _112
REMARK   44  A    between atoms: _112  and  _113
REMARK   45  A    between atoms: _112  and  _115
REMARK   46  A    between atoms: _115  and  _116
REMARK   47  A    between atoms: _119  and  _121
REMARK   48  A    between atoms: _121  and  _122
REMARK   49  A    between atoms: _121  and  _124
REMARK   50  A    between atoms: _124  and  _125
REMARK   51  A    between atoms: _125  and  _126
REMARK   52  A    between atoms: _126  and  _127
REMARK   53  A    between atoms: _127  and  CO_294
REMARK   54  A    between atoms: _129  and  _131
REMARK   55  A    between atoms: _131  and  _132
REMARK   56  A    between atoms: _131  and  _134
REMARK   57  A    between atoms: _134  and  _135
REMARK   58  A    between atoms: _141  and  _143
REMARK   59  A    between atoms: _143  and  _144
REMARK   60  A    between atoms: _143  and  _146
REMARK   61  A    between atoms: _146  and  _147
REMARK   62  A    between atoms: _150  and  _152
REMARK   63  A    between atoms: _152  and  _153
REMARK   64  A    between atoms: _156  and  _157
REMARK   65  A    between atoms: _162  and  _164
REMARK   66  A    between atoms: _164  and  _165
REMARK   67  A    between atoms: _168  and  _170
REMARK   68  A    between atoms: _170  and  _171
REMARK   69  A    between atoms: _170  and  _173
REMARK   70  A    between atoms: _173  and  _174
REMARK   71  A    between atoms: _174  and  _176
REMARK   72  A    between atoms: _176  and  CO_294
REMARK   73  A    between atoms: _177  and  _179
REMARK   74  A    between atoms: _179  and  _180
REMARK   75  A    between atoms: _179  and  _182
REMARK   76  A    between atoms: _182  and  _183
REMARK   77  A    between atoms: _186  and  _188
REMARK   78  A    between atoms: _188  and  _189
REMARK   79  A    between atoms: _188  and  _191
REMARK   80  A    between atoms: _191  and  _192
REMARK   81  A    between atoms: _194  and  _196
REMARK   82  A    between atoms: _196  and  _197
REMARK   83  A    between atoms: _200  and  _202
REMARK   84  A    between atoms: _202  and  _203
REMARK   85  A    between atoms: _202  and  _205
REMARK   86  A    between atoms: _205  and  _206
REMARK   87  A    between atoms: _209  and  _211
REMARK   88  A    between atoms: _211  and  _212
REMARK   89  A    between atoms: _215  and  _216
REMARK   90  A    between atoms: _221  and  _223
REMARK   91  A    between atoms: _223  and  _224
REMARK   92  A    between atoms: _223  and  _226
REMARK   93  A    between atoms: _226  and  _227
REMARK   94  A    between atoms: _230  and  _232
REMARK   95  A    between atoms: _232  and  _233
REMARK   96  A    between atoms: _232  and  _235
REMARK   97  A    between atoms: _235  and  _236
REMARK   98  A    between atoms: _239  and  _241
REMARK   99  A    between atoms: _241  and  _242
REMARK  100  A    between atoms: _241  and  _244
REMARK  101  A    between atoms: _244  and  _245
REMARK  102  A    between atoms: _248  and  _250
REMARK  103  A    between atoms: _250  and  _251
REMARK  104  A    between atoms: _254  and  _256
REMARK  105  A    between atoms: _256  and  _257
REMARK  106  A    between atoms: _256  and  _259
REMARK  107  A    between atoms: _262  and  _264
REMARK  108  A    between atoms: _264  and  _265
REMARK  109  A    between atoms: _267  and  _269
REMARK  110  A    between atoms: _269  and  _270
REMARK  111  A    between atoms: _269  and  _272
REMARK  112  A    between atoms: _275  and  _277
REMARK  113  A    between atoms: _277  and  _278
REMARK  114  A    between atoms: _280  and  _282
REMARK  115  A    between atoms: _282  and  _283
REMARK  116  A    between atoms: _282  and  _285
REMARK  117  A    between atoms: _285  and  _286
REMARK  118  A    between atoms: _288  and  _290
REMARK  119  A    between atoms: _290  and  _291
REMARK                            x       y       z     vdW  Elec       q    Type
REMARK                         _______ _______ _______ _____ _____    ______ ____
ROOT
ATOM      1  O   HOH     1     -51.520 -24.034 -18.152  0.00  0.00    +0.000 OA
ENDROOT
TORSDOF 0
REMARK  Name = ../refined-set-2016/4b5s/4b5s_pocket.pdb
REMARK  119 active torsions:
REMARK  status: ('A' for Active; 'I' for Inactive)
REMARK    1  A    between atoms: _1  and  _3
REMARK    2  A    between atoms: _3  and  _4
REMARK    3  A    between atoms: _3  and  _6
REMARK    4  A    between atoms: _6  and  _7
REMARK    5  A    between atoms: _17  and  _19
REMARK    6  A    between atoms: _19  and  _20
REMARK    7  A    between atoms: _19  and  _22
REMARK    8  A    between atoms: _22  and  _23
REMARK    9  A    between atoms: _26  and  _28
REMARK   10  A    between atoms: _28  and  _29
REMARK   11  A    between atoms: _28  and  _31
REMARK   12  A    between atoms: _31  and  _32
REMARK   13  A    between atoms: _35  and  _37
REMARK   14  A    between atoms: _37  and  _38
REMARK   15  A    between atoms: _37  and  _40
REMARK   16  A    between atoms: _40  and  _41
REMARK   17  A    between atoms: _41  and  _42
REMARK   18  A    between atoms: _45  and  _47
REMARK   19  A    between atoms: _47  and  _48
REMARK   20  A    between atoms: _47  and  _50
REMARK   21  A    between atoms: _50  and  _51
REMARK   22  A    between atoms: _56  and  _58
REMARK   23  A    between atoms: _58  and  _59
REMARK   24  A    between atoms: _58  and  _61
REMARK   25  A    between atoms: _61  and  _62
REMARK   26  A    between atoms: _62  and  _63
REMARK   27  A    between atoms: _63  and  _64
REMARK   28  A    between atoms: _73  and  _75
REMARK   29  A    between atoms: _75  and  _76
REMARK   30  A    between atoms: _75  and  _78
REMARK   31  A    between atoms: _78  and  _79
REMARK   32  A    between atoms: _83  and  _84
REMARK   33  A    between atoms: _89  and  _91
REMARK   34  A    between atoms: _91  and  _92
REMARK   35  A    between atoms: _91  and  _94
REMARK   36  A    between atoms: _94  and  _95
REMARK   37  A    between atoms: _95  and  _96
REMARK   38  A    between atoms: _98  and  _100
REMARK   39  A    between atoms: _100  and  _101
REMARK   40  A    between atoms: _100  and  _103
REMARK   41  A    between atoms: _103  and  _104
REMARK   42  A    between atoms: _104  and  _105
REMARK   43  A    between atoms: _110  and  _112
REMARK   44  A    between atoms: _112  and  _113
REMARK   45  A    between atoms: _112  and  _115
REMARK   46  A    between atoms: _115  and  _116
REMARK   47  A    between atoms: _119  and  _121
REMARK   48  A    between atoms: _121  and  _122
REMARK   49  A    between atoms: _121  and  _124
REMARK   50  A    between atoms: _124  and  _125
REMARK   51  A    between atoms: _125  and  _126
REMARK   52  A    between atoms: _126  and  _127
REMARK   53  A    between atoms: _127  and  CO_294
REMARK   54  A    between atoms: _129  and  _131
REMARK   55  A    between atoms: _131  and  _132
REMARK   56  A    between atoms: _131  and  _134
REMARK   57  A    between atoms: _134  and  _135
REMARK   58  A    between atoms: _141  and  _143
REMARK   59  A    between atoms: _143  and  _144
REMARK   60  A    between atoms: _143  and  _146
REMARK   61  A    between atoms: _146  and  _147
REMARK   62  A    between atoms: _150  and  _152
REMARK   63  A    between atoms: _152  and  _153
REMARK   64  A    between atoms: _156  and  _157
REMARK   65  A    between atoms: _162  and  _164
REMARK   66  A    between atoms: _164  and  _165
REMARK   67  A    between atoms: _168  and  _170
REMARK   68  A    between atoms: _170  and  _171
REMARK   69  A    between atoms: _170  and  _173
REMARK   70  A    between atoms: _173  and  _174
REMARK   71  A    between atoms: _174  and  _176
REMARK   72  A    between atoms: _176  and  CO_294
REMARK   73  A    between atoms: _177  and  _179
REMARK   74  A    between atoms: _179  and  _180
REMARK   75  A    between atoms: _179  and  _182
REMARK   76  A    between atoms: _182  and  _183
REMARK   77  A    between atoms: _186  and  _188
REMARK   78  A    between atoms: _188  and  _189
REMARK   79  A    between atoms: _188  and  _191
REMARK   80  A    between atoms: _191  and  _192
REMARK   81  A    between atoms: _194  and  _196
REMARK   82  A    between atoms: _196  and  _197
REMARK   83  A    between atoms: _200  and  _202
REMARK   84  A    between atoms: _202  and  _203
REMARK   85  A    between atoms: _202  and  _205
REMARK   86  A    between atoms: _205  and  _206
REMARK   87  A    between atoms: _209  and  _211
REMARK   88  A    between atoms: _211  and  _212
REMARK   89  A    between atoms: _215  and  _216
REMARK   90  A    between atoms: _221  and  _223
REMARK   91  A    between atoms: _223  and  _224
REMARK   92  A    between atoms: _223  and  _226
REMARK   93  A    between atoms: _226  and  _227
REMARK   94  A    between atoms: _230  and  _232
REMARK   95  A    between atoms: _232  and  _233
REMARK   96  A    between atoms: _232  and  _235
REMARK   97  A    between atoms: _235  and  _236
REMARK   98  A    between atoms: _239  and  _241
REMARK   99  A    between atoms: _241  and  _242
REMARK  100  A    between atoms: _241  and  _244
REMARK  101  A    between atoms: _244  and  _245
REMARK  102  A    between atoms: _248  and  _250
REMARK  103  A    between atoms: _250  and  _251
REMARK  104  A    between atoms: _254  and  _256
REMARK  105  A    between atoms: _256  and  _257
REMARK  106  A    between atoms: _256  and  _259
REMARK  107  A    between atoms: _262  and  _264
REMARK  108  A    between atoms: _264  and  _265
REMARK  109  A    between atoms: _267  and  _269
REMARK  110  A    between atoms: _269  and  _270
REMARK  111  A    between atoms: _269  and  _272
REMARK  112  A    between atoms: _275  and  _277
REMARK  113  A    between atoms: _277  and  _278
REMARK  114  A    between atoms: _280  and  _282
REMARK  115  A    between atoms: _282  and  _283
REMARK  116  A    between atoms: _282  and  _285
REMARK  117  A    between atoms: _285  and  _286
REMARK  118  A    between atoms: _288  and  _290
REMARK  119  A    between atoms: _290  and  _291
REMARK                            x       y       z     vdW  Elec       q    Type
REMARK                         _______ _______ _______ _____ _____    ______ ____
ROOT
ATOM      1  O   HOH     1     -51.008 -29.474 -12.959  0.00  0.00    +0.000 OA
ENDROOT
TORSDOF 0
REMARK  Name = ../refined-set-2016/4b5s/4b5s_pocket.pdb
REMARK  119 active torsions:
REMARK  status: ('A' for Active; 'I' for Inactive)
REMARK    1  A    between atoms: _1  and  _3
REMARK    2  A    between atoms: _3  and  _4
REMARK    3  A    between atoms: _3  and  _6
REMARK    4  A    between atoms: _6  and  _7
REMARK    5  A    between atoms: _17  and  _19
REMARK    6  A    between atoms: _19  and  _20
REMARK    7  A    between atoms: _19  and  _22
REMARK    8  A    between atoms: _22  and  _23
REMARK    9  A    between atoms: _26  and  _28
REMARK   10  A    between atoms: _28  and  _29
REMARK   11  A    between atoms: _28  and  _31
REMARK   12  A    between atoms: _31  and  _32
REMARK   13  A    between atoms: _35  and  _37
REMARK   14  A    between atoms: _37  and  _38
REMARK   15  A    between atoms: _37  and  _40
REMARK   16  A    between atoms: _40  and  _41
REMARK   17  A    between atoms: _41  and  _42
REMARK   18  A    between atoms: _45  and  _47
REMARK   19  A    between atoms: _47  and  _48
REMARK   20  A    between atoms: _47  and  _50
REMARK   21  A    between atoms: _50  and  _51
REMARK   22  A    between atoms: _56  and  _58
REMARK   23  A    between atoms: _58  and  _59
REMARK   24  A    between atoms: _58  and  _61
REMARK   25  A    between atoms: _61  and  _62
REMARK   26  A    between atoms: _62  and  _63
REMARK   27  A    between atoms: _63  and  _64
REMARK   28  A    between atoms: _73  and  _75
REMARK   29  A    between atoms: _75  and  _76
REMARK   30  A    between atoms: _75  and  _78
REMARK   31  A    between atoms: _78  and  _79
REMARK   32  A    between atoms: _83  and  _84
REMARK   33  A    between atoms: _89  and  _91
REMARK   34  A    between atoms: _91  and  _92
REMARK   35  A    between atoms: _91  and  _94
REMARK   36  A    between atoms: _94  and  _95
REMARK   37  A    between atoms: _95  and  _96
REMARK   38  A    between atoms: _98  and  _100
REMARK   39  A    between atoms: _100  and  _101
REMARK   40  A    between atoms: _100  and  _103
REMARK   41  A    between atoms: _103  and  _104
REMARK   42  A    between atoms: _104  and  _105
REMARK   43  A    between atoms: _110  and  _112
REMARK   44  A    between atoms: _112  and  _113
REMARK   45  A    between atoms: _112  and  _115
REMARK   46  A    between atoms: _115  and  _116
REMARK   47  A    between atoms: _119  and  _121
REMARK   48  A    between atoms: _121  and  _122
REMARK   49  A    between atoms: _121  and  _124
REMARK   50  A    between atoms: _124  and  _125
REMARK   51  A    between atoms: _125  and  _126
REMARK   52  A    between atoms: _126  and  _127
REMARK   53  A    between atoms: _127  and  CO_294
REMARK   54  A    between atoms: _129  and  _131
REMARK   55  A    between atoms: _131  and  _132
REMARK   56  A    between atoms: _131  and  _134
REMARK   57  A    between atoms: _134  and  _135
REMARK   58  A    between atoms: _141  and  _143
REMARK   59  A    between atoms: _143  and  _144
REMARK   60  A    between atoms: _143  and  _146
REMARK   61  A    between atoms: _146  and  _147
REMARK   62  A    between atoms: _150  and  _152
REMARK   63  A    between atoms: _152  and  _153
REMARK   64  A    between atoms: _156  and  _157
REMARK   65  A    between atoms: _162  and  _164
REMARK   66  A    between atoms: _164  and  _165
REMARK   67  A    between atoms: _168  and  _170
REMARK   68  A    between atoms: _170  and  _171
REMARK   69  A    between atoms: _170  and  _173
REMARK   70  A    between atoms: _173  and  _174
REMARK   71  A    between atoms: _174  and  _176
REMARK   72  A    between atoms: _176  and  CO_294
REMARK   73  A    between atoms: _177  and  _179
REMARK   74  A    between atoms: _179  and  _180
REMARK   75  A    between atoms: _179  and  _182
REMARK   76  A    between atoms: _182  and  _183
REMARK   77  A    between atoms: _186  and  _188
REMARK   78  A    between atoms: _188  and  _189
REMARK   79  A    between atoms: _188  and  _191
REMARK   80  A    between atoms: _191  and  _192
REMARK   81  A    between atoms: _194  and  _196
REMARK   82  A    between atoms: _196  and  _197
REMARK   83  A    between atoms: _200  and  _202
REMARK   84  A    between atoms: _202  and  _203
REMARK   85  A    between atoms: _202  and  _205
REMARK   86  A    between atoms: _205  and  _206
REMARK   87  A    between atoms: _209  and  _211
REMARK   88  A    between atoms: _211  and  _212
REMARK   89  A    between atoms: _215  and  _216
REMARK   90  A    between atoms: _221  and  _223
REMARK   91  A    between atoms: _223  and  _224
REMARK   92  A    between atoms: _223  and  _226
REMARK   93  A    between atoms: _226  and  _227
REMARK   94  A    between atoms: _230  and  _232
REMARK   95  A    between atoms: _232  and  _233
REMARK   96  A    between atoms: _232  and  _235
REMARK   97  A    between atoms: _235  and  _236
REMARK   98  A    between atoms: _239  and  _241
REMARK   99  A    between atoms: _241  and  _242
REMARK  100  A    between atoms: _241  and  _244
REMARK  101  A    between atoms: _244  and  _245
REMARK  102  A    between atoms: _248  and  _250
REMARK  103  A    between atoms: _250  and  _251
REMARK  104  A    between atoms: _254  and  _256
REMARK  105  A    between atoms: _256  and  _257
REMARK  106  A    between atoms: _256  and  _259
REMARK  107  A    between atoms: _262  and  _264
REMARK  108  A    between atoms: _264  and  _265
REMARK  109  A    between atoms: _267  and  _269
REMARK  110  A    between atoms: _269  and  _270
REMARK  111  A    between atoms: _269  and  _272
REMARK  112  A    between atoms: _275  and  _277
REMARK  113  A    between atoms: _277  and  _278
REMARK  114  A    between atoms: _280  and  _282
REMARK  115  A    between atoms: _282  and  _283
REMARK  116  A    between atoms: _282  and  _285
REMARK  117  A    between atoms: _285  and  _286
REMARK  118  A    between atoms: _288  and  _290
REMARK  119  A    between atoms: _290  and  _291
REMARK                            x       y       z     vdW  Elec       q    Type
REMARK                         _______ _______ _______ _____ _____    ______ ____
ROOT
ATOM      1  O   HOH     1     -50.439 -27.467 -11.323  0.00  0.00    +0.000 OA
ENDROOT
TORSDOF 0
REMARK  Name = ../refined-set-2016/4b5s/4b5s_pocket.pdb
REMARK  119 active torsions:
REMARK  status: ('A' for Active; 'I' for Inactive)
REMARK    1  A    between atoms: _1  and  _3
REMARK    2  A    between atoms: _3  and  _4
REMARK    3  A    between atoms: _3  and  _6
REMARK    4  A    between atoms: _6  and  _7
REMARK    5  A    between atoms: _17  and  _19
REMARK    6  A    between atoms: _19  and  _20
REMARK    7  A    between atoms: _19  and  _22
REMARK    8  A    between atoms: _22  and  _23
REMARK    9  A    between atoms: _26  and  _28
REMARK   10  A    between atoms: _28  and  _29
REMARK   11  A    between atoms: _28  and  _31
REMARK   12  A    between atoms: _31  and  _32
REMARK   13  A    between atoms: _35  and  _37
REMARK   14  A    between atoms: _37  and  _38
REMARK   15  A    between atoms: _37  and  _40
REMARK   16  A    between atoms: _40  and  _41
REMARK   17  A    between atoms: _41  and  _42
REMARK   18  A    between atoms: _45  and  _47
REMARK   19  A    between atoms: _47  and  _48
REMARK   20  A    between atoms: _47  and  _50
REMARK   21  A    between atoms: _50  and  _51
REMARK   22  A    between atoms: _56  and  _58
REMARK   23  A    between atoms: _58  and  _59
REMARK   24  A    between atoms: _58  and  _61
REMARK   25  A    between atoms: _61  and  _62
REMARK   26  A    between atoms: _62  and  _63
REMARK   27  A    between atoms: _63  and  _64
REMARK   28  A    between atoms: _73  and  _75
REMARK   29  A    between atoms: _75  and  _76
REMARK   30  A    between atoms: _75  and  _78
REMARK   31  A    between atoms: _78  and  _79
REMARK   32  A    between atoms: _83  and  _84
REMARK   33  A    between atoms: _89  and  _91
REMARK   34  A    between atoms: _91  and  _92
REMARK   35  A    between atoms: _91  and  _94
REMARK   36  A    between atoms: _94  and  _95
REMARK   37  A    between atoms: _95  and  _96
REMARK   38  A    between atoms: _98  and  _100
REMARK   39  A    between atoms: _100  and  _101
REMARK   40  A    between atoms: _100  and  _103
REMARK   41  A    between atoms: _103  and  _104
REMARK   42  A    between atoms: _104  and  _105
REMARK   43  A    between atoms: _110  and  _112
REMARK   44  A    between atoms: _112  and  _113
REMARK   45  A    between atoms: _112  and  _115
REMARK   46  A    between atoms: _115  and  _116
REMARK   47  A    between atoms: _119  and  _121
REMARK   48  A    between atoms: _121  and  _122
REMARK   49  A    between atoms: _121  and  _124
REMARK   50  A    between atoms: _124  and  _125
REMARK   51  A    between atoms: _125  and  _126
REMARK   52  A    between atoms: _126  and  _127
REMARK   53  A    between atoms: _127  and  CO_294
REMARK   54  A    between atoms: _129  and  _131
REMARK   55  A    between atoms: _131  and  _132
REMARK   56  A    between atoms: _131  and  _134
REMARK   57  A    between atoms: _134  and  _135
REMARK   58  A    between atoms: _141  and  _143
REMARK   59  A    between atoms: _143  and  _144
REMARK   60  A    between atoms: _143  and  _146
REMARK   61  A    between atoms: _146  and  _147
REMARK   62  A    between atoms: _150  and  _152
REMARK   63  A    between atoms: _152  and  _153
REMARK   64  A    between atoms: _156  and  _157
REMARK   65  A    between atoms: _162  and  _164
REMARK   66  A    between atoms: _164  and  _165
REMARK   67  A    between atoms: _168  and  _170
REMARK   68  A    between atoms: _170  and  _171
REMARK   69  A    between atoms: _170  and  _173
REMARK   70  A    between atoms: _173  and  _174
REMARK   71  A    between atoms: _174  and  _176
REMARK   72  A    between atoms: _176  and  CO_294
REMARK   73  A    between atoms: _177  and  _179
REMARK   74  A    between atoms: _179  and  _180
REMARK   75  A    between atoms: _179  and  _182
REMARK   76  A    between atoms: _182  and  _183
REMARK   77  A    between atoms: _186  and  _188
REMARK   78  A    between atoms: _188  and  _189
REMARK   79  A    between atoms: _188  and  _191
REMARK   80  A    between atoms: _191  and  _192
REMARK   81  A    between atoms: _194  and  _196
REMARK   82  A    between atoms: _196  and  _197
REMARK   83  A    between atoms: _200  and  _202
REMARK   84  A    between atoms: _202  and  _203
REMARK   85  A    between atoms: _202  and  _205
REMARK   86  A    between atoms: _205  and  _206
REMARK   87  A    between atoms: _209  and  _211
REMARK   88  A    between atoms: _211  and  _212
REMARK   89  A    between atoms: _215  and  _216
REMARK   90  A    between atoms: _221  and  _223
REMARK   91  A    between atoms: _223  and  _224
REMARK   92  A    between atoms: _223  and  _226
REMARK   93  A    between atoms: _226  and  _227
REMARK   94  A    between atoms: _230  and  _232
REMARK   95  A    between atoms: _232  and  _233
REMARK   96  A    between atoms: _232  and  _235
REMARK   97  A    between atoms: _235  and  _236
REMARK   98  A    between atoms: _239  and  _241
REMARK   99  A    between atoms: _241  and  _242
REMARK  100  A    between atoms: _241  and  _244
REMARK  101  A    between atoms: _244  and  _245
REMARK  102  A    between atoms: _248  and  _250
REMARK  103  A    between atoms: _250  and  _251
REMARK  104  A    between atoms: _254  and  _256
REMARK  105  A    between atoms: _256  and  _257
REMARK  106  A    between atoms: _256  and  _259
REMARK  107  A    between atoms: _262  and  _264
REMARK  108  A    between atoms: _264  and  _265
REMARK  109  A    between atoms: _267  and  _269
REMARK  110  A    between atoms: _269  and  _270
REMARK  111  A    between atoms: _269  and  _272
REMARK  112  A    between atoms: _275  and  _277
REMARK  113  A    between atoms: _277  and  _278
REMARK  114  A    between atoms: _280  and  _282
REMARK  115  A    between atoms: _282  and  _283
REMARK  116  A    between atoms: _282  and  _285
REMARK  117  A    between atoms: _285  and  _286
REMARK  118  A    between atoms: _288  and  _290
REMARK  119  A    between atoms: _290  and  _291
REMARK                            x       y       z     vdW  Elec       q    Type
REMARK                         _______ _______ _______ _____ _____    ______ ____
ROOT
ATOM      1  O   HOH     1     -48.160 -26.738 -14.724  0.00  0.00    +0.000 OA
ENDROOT
TORSDOF 0
REMARK  Name = ../refined-set-2016/4b5s/4b5s_pocket.pdb
REMARK  119 active torsions:
REMARK  status: ('A' for Active; 'I' for Inactive)
REMARK    1  A    between atoms: _1  and  _3
REMARK    2  A    between atoms: _3  and  _4
REMARK    3  A    between atoms: _3  and  _6
REMARK    4  A    between atoms: _6  and  _7
REMARK    5  A    between atoms: _17  and  _19
REMARK    6  A    between atoms: _19  and  _20
REMARK    7  A    between atoms: _19  and  _22
REMARK    8  A    between atoms: _22  and  _23
REMARK    9  A    between atoms: _26  and  _28
REMARK   10  A    between atoms: _28  and  _29
REMARK   11  A    between atoms: _28  and  _31
REMARK   12  A    between atoms: _31  and  _32
REMARK   13  A    between atoms: _35  and  _37
REMARK   14  A    between atoms: _37  and  _38
REMARK   15  A    between atoms: _37  and  _40
REMARK   16  A    between atoms: _40  and  _41
REMARK   17  A    between atoms: _41  and  _42
REMARK   18  A    between atoms: _45  and  _47
REMARK   19  A    between atoms: _47  and  _48
REMARK   20  A    between atoms: _47  and  _50
REMARK   21  A    between atoms: _50  and  _51
REMARK   22  A    between atoms: _56  and  _58
REMARK   23  A    between atoms: _58  and  _59
REMARK   24  A    between atoms: _58  and  _61
REMARK   25  A    between atoms: _61  and  _62
REMARK   26  A    between atoms: _62  and  _63
REMARK   27  A    between atoms: _63  and  _64
REMARK   28  A    between atoms: _73  and  _75
REMARK   29  A    between atoms: _75  and  _76
REMARK   30  A    between atoms: _75  and  _78
REMARK   31  A    between atoms: _78  and  _79
REMARK   32  A    between atoms: _83  and  _84
REMARK   33  A    between atoms: _89  and  _91
REMARK   34  A    between atoms: _91  and  _92
REMARK   35  A    between atoms: _91  and  _94
REMARK   36  A    between atoms: _94  and  _95
REMARK   37  A    between atoms: _95  and  _96
REMARK   38  A    between atoms: _98  and  _100
REMARK   39  A    between atoms: _100  and  _101
REMARK   40  A    between atoms: _100  and  _103
REMARK   41  A    between atoms: _103  and  _104
REMARK   42  A    between atoms: _104  and  _105
REMARK   43  A    between atoms: _110  and  _112
REMARK   44  A    between atoms: _112  and  _113
REMARK   45  A    between atoms: _112  and  _115
REMARK   46  A    between atoms: _115  and  _116
REMARK   47  A    between atoms: _119  and  _121
REMARK   48  A    between atoms: _121  and  _122
REMARK   49  A    between atoms: _121  and  _124
REMARK   50  A    between atoms: _124  and  _125
REMARK   51  A    between atoms: _125  and  _126
REMARK   52  A    between atoms: _126  and  _127
REMARK   53  A    between atoms: _127  and  CO_294
REMARK   54  A    between atoms: _129  and  _131
REMARK   55  A    between atoms: _131  and  _132
REMARK   56  A    between atoms: _131  and  _134
REMARK   57  A    between atoms: _134  and  _135
REMARK   58  A    between atoms: _141  and  _143
REMARK   59  A    between atoms: _143  and  _144
REMARK   60  A    between atoms: _143  and  _146
REMARK   61  A    between atoms: _146  and  _147
REMARK   62  A    between atoms: _150  and  _152
REMARK   63  A    between atoms: _152  and  _153
REMARK   64  A    between atoms: _156  and  _157
REMARK   65  A    between atoms: _162  and  _164
REMARK   66  A    between atoms: _164  and  _165
REMARK   67  A    between atoms: _168  and  _170
REMARK   68  A    between atoms: _170  and  _171
REMARK   69  A    between atoms: _170  and  _173
REMARK   70  A    between atoms: _173  and  _174
REMARK   71  A    between atoms: _174  and  _176
REMARK   72  A    between atoms: _176  and  CO_294
REMARK   73  A    between atoms: _177  and  _179
REMARK   74  A    between atoms: _179  and  _180
REMARK   75  A    between atoms: _179  and  _182
REMARK   76  A    between atoms: _182  and  _183
REMARK   77  A    between atoms: _186  and  _188
REMARK   78  A    between atoms: _188  and  _189
REMARK   79  A    between atoms: _188  and  _191
REMARK   80  A    between atoms: _191  and  _192
REMARK   81  A    between atoms: _194  and  _196
REMARK   82  A    between atoms: _196  and  _197
REMARK   83  A    between atoms: _200  and  _202
REMARK   84  A    between atoms: _202  and  _203
REMARK   85  A    between atoms: _202  and  _205
REMARK   86  A    between atoms: _205  and  _206
REMARK   87  A    between atoms: _209  and  _211
REMARK   88  A    between atoms: _211  and  _212
REMARK   89  A    between atoms: _215  and  _216
REMARK   90  A    between atoms: _221  and  _223
REMARK   91  A    between atoms: _223  and  _224
REMARK   92  A    between atoms: _223  and  _226
REMARK   93  A    between atoms: _226  and  _227
REMARK   94  A    between atoms: _230  and  _232
REMARK   95  A    between atoms: _232  and  _233
REMARK   96  A    between atoms: _232  and  _235
REMARK   97  A    between atoms: _235  and  _236
REMARK   98  A    between atoms: _239  and  _241
REMARK   99  A    between atoms: _241  and  _242
REMARK  100  A    between atoms: _241  and  _244
REMARK  101  A    between atoms: _244  and  _245
REMARK  102  A    between atoms: _248  and  _250
REMARK  103  A    between atoms: _250  and  _251
REMARK  104  A    between atoms: _254  and  _256
REMARK  105  A    between atoms: _256  and  _257
REMARK  106  A    between atoms: _256  and  _259
REMARK  107  A    between atoms: _262  and  _264
REMARK  108  A    between atoms: _264  and  _265
REMARK  109  A    between atoms: _267  and  _269
REMARK  110  A    between atoms: _269  and  _270
REMARK  111  A    between atoms: _269  and  _272
REMARK  112  A    between atoms: _275  and  _277
REMARK  113  A    between atoms: _277  and  _278
REMARK  114  A    between atoms: _280  and  _282
REMARK  115  A    between atoms: _282  and  _283
REMARK  116  A    between atoms: _282  and  _285
REMARK  117  A    between atoms: _285  and  _286
REMARK  118  A    between atoms: _288  and  _290
REMARK  119  A    between atoms: _290  and  _291
REMARK                            x       y       z     vdW  Elec       q    Type
REMARK                         _______ _______ _______ _____ _____    ______ ____
ROOT
ATOM      1  O   HOH     1     -46.954 -27.062 -16.964  0.00  0.00    +0.000 OA
ENDROOT
TORSDOF 0
REMARK  Name = ../refined-set-2016/4b5s/4b5s_pocket.pdb
REMARK  119 active torsions:
REMARK  status: ('A' for Active; 'I' for Inactive)
REMARK    1  A    between atoms: _1  and  _3
REMARK    2  A    between atoms: _3  and  _4
REMARK    3  A    between atoms: _3  and  _6
REMARK    4  A    between atoms: _6  and  _7
REMARK    5  A    between atoms: _17  and  _19
REMARK    6  A    between atoms: _19  and  _20
REMARK    7  A    between atoms: _19  and  _22
REMARK    8  A    between atoms: _22  and  _23
REMARK    9  A    between atoms: _26  and  _28
REMARK   10  A    between atoms: _28  and  _29
REMARK   11  A    between atoms: _28  and  _31
REMARK   12  A    between atoms: _31  and  _32
REMARK   13  A    between atoms: _35  and  _37
REMARK   14  A    between atoms: _37  and  _38
REMARK   15  A    between atoms: _37  and  _40
REMARK   16  A    between atoms: _40  and  _41
REMARK   17  A    between atoms: _41  and  _42
REMARK   18  A    between atoms: _45  and  _47
REMARK   19  A    between atoms: _47  and  _48
REMARK   20  A    between atoms: _47  and  _50
REMARK   21  A    between atoms: _50  and  _51
REMARK   22  A    between atoms: _56  and  _58
REMARK   23  A    between atoms: _58  and  _59
REMARK   24  A    between atoms: _58  and  _61
REMARK   25  A    between atoms: _61  and  _62
REMARK   26  A    between atoms: _62  and  _63
REMARK   27  A    between atoms: _63  and  _64
REMARK   28  A    between atoms: _73  and  _75
REMARK   29  A    between atoms: _75  and  _76
REMARK   30  A    between atoms: _75  and  _78
REMARK   31  A    between atoms: _78  and  _79
REMARK   32  A    between atoms: _83  and  _84
REMARK   33  A    between atoms: _89  and  _91
REMARK   34  A    between atoms: _91  and  _92
REMARK   35  A    between atoms: _91  and  _94
REMARK   36  A    between atoms: _94  and  _95
REMARK   37  A    between atoms: _95  and  _96
REMARK   38  A    between atoms: _98  and  _100
REMARK   39  A    between atoms: _100  and  _101
REMARK   40  A    between atoms: _100  and  _103
REMARK   41  A    between atoms: _103  and  _104
REMARK   42  A    between atoms: _104  and  _105
REMARK   43  A    between atoms: _110  and  _112
REMARK   44  A    between atoms: _112  and  _113
REMARK   45  A    between atoms: _112  and  _115
REMARK   46  A    between atoms: _115  and  _116
REMARK   47  A    between atoms: _119  and  _121
REMARK   48  A    between atoms: _121  and  _122
REMARK   49  A    between atoms: _121  and  _124
REMARK   50  A    between atoms: _124  and  _125
REMARK   51  A    between atoms: _125  and  _126
REMARK   52  A    between atoms: _126  and  _127
REMARK   53  A    between atoms: _127  and  CO_294
REMARK   54  A    between atoms: _129  and  _131
REMARK   55  A    between atoms: _131  and  _132
REMARK   56  A    between atoms: _131  and  _134
REMARK   57  A    between atoms: _134  and  _135
REMARK   58  A    between atoms: _141  and  _143
REMARK   59  A    between atoms: _143  and  _144
REMARK   60  A    between atoms: _143  and  _146
REMARK   61  A    between atoms: _146  and  _147
REMARK   62  A    between atoms: _150  and  _152
REMARK   63  A    between atoms: _152  and  _153
REMARK   64  A    between atoms: _156  and  _157
REMARK   65  A    between atoms: _162  and  _164
REMARK   66  A    between atoms: _164  and  _165
REMARK   67  A    between atoms: _168  and  _170
REMARK   68  A    between atoms: _170  and  _171
REMARK   69  A    between atoms: _170  and  _173
REMARK   70  A    between atoms: _173  and  _174
REMARK   71  A    between atoms: _174  and  _176
REMARK   72  A    between atoms: _176  and  CO_294
REMARK   73  A    between atoms: _177  and  _179
REMARK   74  A    between atoms: _179  and  _180
REMARK   75  A    between atoms: _179  and  _182
REMARK   76  A    between atoms: _182  and  _183
REMARK   77  A    between atoms: _186  and  _188
REMARK   78  A    between atoms: _188  and  _189
REMARK   79  A    between atoms: _188  and  _191
REMARK   80  A    between atoms: _191  and  _192
REMARK   81  A    between atoms: _194  and  _196
REMARK   82  A    between atoms: _196  and  _197
REMARK   83  A    between atoms: _200  and  _202
REMARK   84  A    between atoms: _202  and  _203
REMARK   85  A    between atoms: _202  and  _205
REMARK   86  A    between atoms: _205  and  _206
REMARK   87  A    between atoms: _209  and  _211
REMARK   88  A    between atoms: _211  and  _212
REMARK   89  A    between atoms: _215  and  _216
REMARK   90  A    between atoms: _221  and  _223
REMARK   91  A    between atoms: _223  and  _224
REMARK   92  A    between atoms: _223  and  _226
REMARK   93  A    between atoms: _226  and  _227
REMARK   94  A    between atoms: _230  and  _232
REMARK   95  A    between atoms: _232  and  _233
REMARK   96  A    between atoms: _232  and  _235
REMARK   97  A    between atoms: _235  and  _236
REMARK   98  A    between atoms: _239  and  _241
REMARK   99  A    between atoms: _241  and  _242
REMARK  100  A    between atoms: _241  and  _244
REMARK  101  A    between atoms: _244  and  _245
REMARK  102  A    between atoms: _248  and  _250
REMARK  103  A    between atoms: _250  and  _251
REMARK  104  A    between atoms: _254  and  _256
REMARK  105  A    between atoms: _256  and  _257
REMARK  106  A    between atoms: _256  and  _259
REMARK  107  A    between atoms: _262  and  _264
REMARK  108  A    between atoms: _264  and  _265
REMARK  109  A    between atoms: _267  and  _269
REMARK  110  A    between atoms: _269  and  _270
REMARK  111  A    between atoms: _269  and  _272
REMARK  112  A    between atoms: _275  and  _277
REMARK  113  A    between atoms: _277  and  _278
REMARK  114  A    between atoms: _280  and  _282
REMARK  115  A    between atoms: _282  and  _283
REMARK  116  A    between atoms: _282  and  _285
REMARK  117  A    between atoms: _285  and  _286
REMARK  118  A    between atoms: _288  and  _290
REMARK  119  A    between atoms: _290  and  _291
REMARK                            x       y       z     vdW  Elec       q    Type
REMARK                         _______ _______ _______ _____ _____    ______ ____
ROOT
ATOM      1  O   HOH     1     -49.397 -29.368 -15.248  0.00  0.00    +0.000 OA
ENDROOT
TORSDOF 0
REMARK  Name = ../refined-set-2016/4b5s/4b5s_pocket.pdb
REMARK  119 active torsions:
REMARK  status: ('A' for Active; 'I' for Inactive)
REMARK    1  A    between atoms: _1  and  _3
REMARK    2  A    between atoms: _3  and  _4
REMARK    3  A    between atoms: _3  and  _6
REMARK    4  A    between atoms: _6  and  _7
REMARK    5  A    between atoms: _17  and  _19
REMARK    6  A    between atoms: _19  and  _20
REMARK    7  A    between atoms: _19  and  _22
REMARK    8  A    between atoms: _22  and  _23
REMARK    9  A    between atoms: _26  and  _28
REMARK   10  A    between atoms: _28  and  _29
REMARK   11  A    between atoms: _28  and  _31
REMARK   12  A    between atoms: _31  and  _32
REMARK   13  A    between atoms: _35  and  _37
REMARK   14  A    between atoms: _37  and  _38
REMARK   15  A    between atoms: _37  and  _40
REMARK   16  A    between atoms: _40  and  _41
REMARK   17  A    between atoms: _41  and  _42
REMARK   18  A    between atoms: _45  and  _47
REMARK   19  A    between atoms: _47  and  _48
REMARK   20  A    between atoms: _47  and  _50
REMARK   21  A    between atoms: _50  and  _51
REMARK   22  A    between atoms: _56  and  _58
REMARK   23  A    between atoms: _58  and  _59
REMARK   24  A    between atoms: _58  and  _61
REMARK   25  A    between atoms: _61  and  _62
REMARK   26  A    between atoms: _62  and  _63
REMARK   27  A    between atoms: _63  and  _64
REMARK   28  A    between atoms: _73  and  _75
REMARK   29  A    between atoms: _75  and  _76
REMARK   30  A    between atoms: _75  and  _78
REMARK   31  A    between atoms: _78  and  _79
REMARK   32  A    between atoms: _83  and  _84
REMARK   33  A    between atoms: _89  and  _91
REMARK   34  A    between atoms: _91  and  _92
REMARK   35  A    between atoms: _91  and  _94
REMARK   36  A    between atoms: _94  and  _95
REMARK   37  A    between atoms: _95  and  _96
REMARK   38  A    between atoms: _98  and  _100
REMARK   39  A    between atoms: _100  and  _101
REMARK   40  A    between atoms: _100  and  _103
REMARK   41  A    between atoms: _103  and  _104
REMARK   42  A    between atoms: _104  and  _105
REMARK   43  A    between atoms: _110  and  _112
REMARK   44  A    between atoms: _112  and  _113
REMARK   45  A    between atoms: _112  and  _115
REMARK   46  A    between atoms: _115  and  _116
REMARK   47  A    between atoms: _119  and  _121
REMARK   48  A    between atoms: _121  and  _122
REMARK   49  A    between atoms: _121  and  _124
REMARK   50  A    between atoms: _124  and  _125
REMARK   51  A    between atoms: _125  and  _126
REMARK   52  A    between atoms: _126  and  _127
REMARK   53  A    between atoms: _127  and  CO_294
REMARK   54  A    between atoms: _129  and  _131
REMARK   55  A    between atoms: _131  and  _132
REMARK   56  A    between atoms: _131  and  _134
REMARK   57  A    between atoms: _134  and  _135
REMARK   58  A    between atoms: _141  and  _143
REMARK   59  A    between atoms: _143  and  _144
REMARK   60  A    between atoms: _143  and  _146
REMARK   61  A    between atoms: _146  and  _147
REMARK   62  A    between atoms: _150  and  _152
REMARK   63  A    between atoms: _152  and  _153
REMARK   64  A    between atoms: _156  and  _157
REMARK   65  A    between atoms: _162  and  _164
REMARK   66  A    between atoms: _164  and  _165
REMARK   67  A    between atoms: _168  and  _170
REMARK   68  A    between atoms: _170  and  _171
REMARK   69  A    between atoms: _170  and  _173
REMARK   70  A    between atoms: _173  and  _174
REMARK   71  A    between atoms: _174  and  _176
REMARK   72  A    between atoms: _176  and  CO_294
REMARK   73  A    between atoms: _177  and  _179
REMARK   74  A    between atoms: _179  and  _180
REMARK   75  A    between atoms: _179  and  _182
REMARK   76  A    between atoms: _182  and  _183
REMARK   77  A    between atoms: _186  and  _188
REMARK   78  A    between atoms: _188  and  _189
REMARK   79  A    between atoms: _188  and  _191
REMARK   80  A    between atoms: _191  and  _192
REMARK   81  A    between atoms: _194  and  _196
REMARK   82  A    between atoms: _196  and  _197
REMARK   83  A    between atoms: _200  and  _202
REMARK   84  A    between atoms: _202  and  _203
REMARK   85  A    between atoms: _202  and  _205
REMARK   86  A    between atoms: _205  and  _206
REMARK   87  A    between atoms: _209  and  _211
REMARK   88  A    between atoms: _211  and  _212
REMARK   89  A    between atoms: _215  and  _216
REMARK   90  A    between atoms: _221  and  _223
REMARK   91  A    between atoms: _223  and  _224
REMARK   92  A    between atoms: _223  and  _226
REMARK   93  A    between atoms: _226  and  _227
REMARK   94  A    between atoms: _230  and  _232
REMARK   95  A    between atoms: _232  and  _233
REMARK   96  A    between atoms: _232  and  _235
REMARK   97  A    between atoms: _235  and  _236
REMARK   98  A    between atoms: _239  and  _241
REMARK   99  A    between atoms: _241  and  _242
REMARK  100  A    between atoms: _241  and  _244
REMARK  101  A    between atoms: _244  and  _245
REMARK  102  A    between atoms: _248  and  _250
REMARK  103  A    between atoms: _250  and  _251
REMARK  104  A    between atoms: _254  and  _256
REMARK  105  A    between atoms: _256  and  _257
REMARK  106  A    between atoms: _256  and  _259
REMARK  107  A    between atoms: _262  and  _264
REMARK  108  A    between atoms: _264  and  _265
REMARK  109  A    between atoms: _267  and  _269
REMARK  110  A    between atoms: _269  and  _270
REMARK  111  A    between atoms: _269  and  _272
REMARK  112  A    between atoms: _275  and  _277
REMARK  113  A    between atoms: _277  and  _278
REMARK  114  A    between atoms: _280  and  _282
REMARK  115  A    between atoms: _282  and  _283
REMARK  116  A    between atoms: _282  and  _285
REMARK  117  A    between atoms: _285  and  _286
REMARK  118  A    between atoms: _288  and  _290
REMARK  119  A    between atoms: _290  and  _291
REMARK                            x       y       z     vdW  Elec       q    Type
REMARK                         _______ _______ _______ _____ _____    ______ ____
ROOT
ATOM      1  O   HOH     1     -50.420 -24.021 -13.099  0.00  0.00    +0.000 OA
ENDROOT
TORSDOF 0
